*SPEF "ieee 1481-1999"
*DESIGN "sram_multiplier_system"
*DATE "12:35:32 Wednesday October 01, 2025"
*VENDOR "The OpenROAD Project"
*PROGRAM "OpenROAD"
*VERSION "v2.0-17598-ga008522d8"
*DESIGN_FLOW "NAME_SCOPE LOCAL" "PIN_CAP NONE"
*DIVIDER /
*DELIMITER :
*BUS_DELIMITER []
*T_UNIT 1 NS
*C_UNIT 1 PF
*R_UNIT 1 OHM
*L_UNIT 1 HENRY

*NAME_MAP
*1 clk
*2 data_in[0]
*3 data_in[10]
*4 data_in[11]
*5 data_in[12]
*6 data_in[13]
*7 data_in[14]
*8 data_in[15]
*9 data_in[1]
*10 data_in[2]
*11 data_in[3]
*12 data_in[4]
*13 data_in[5]
*14 data_in[6]
*15 data_in[7]
*16 data_in[8]
*17 data_in[9]
*18 data_out[0]
*19 data_out[10]
*20 data_out[11]
*21 data_out[12]
*22 data_out[13]
*23 data_out[14]
*24 data_out[15]
*25 data_out[16]
*26 data_out[17]
*27 data_out[18]
*28 data_out[19]
*29 data_out[1]
*30 data_out[20]
*31 data_out[21]
*32 data_out[22]
*33 data_out[23]
*34 data_out[24]
*35 data_out[25]
*36 data_out[26]
*37 data_out[27]
*38 data_out[28]
*39 data_out[29]
*40 data_out[2]
*41 data_out[30]
*42 data_out[31]
*43 data_out[3]
*44 data_out[4]
*45 data_out[5]
*46 data_out[6]
*47 data_out[7]
*48 data_out[8]
*49 data_out[9]
*50 curr_state[1]
*51 init_enable
*52 pe_ce
*53 rst_n
*54 valid_reg_out
*57 _118_
*58 _119_
*59 _120_
*60 _121_
*61 _122_
*62 _123_
*63 _124_
*64 _125_
*65 _126_
*66 _127_
*67 _128_
*68 _129_
*69 _130_
*70 _131_
*71 _132_
*72 _133_
*73 _134_
*74 _135_
*75 _136_
*76 _137_
*77 _138_
*78 _139_
*79 _140_
*80 _141_
*81 _142_
*82 _143_
*83 _144_
*84 _145_
*85 _146_
*86 _147_
*87 _148_
*88 _149_
*89 _150_
*90 _151_
*91 _152_
*92 _153_
*93 _154_
*94 _155_
*95 _156_
*96 _157_
*97 _158_
*98 _159_
*99 _160_
*100 _161_
*101 _162_
*102 _163_
*103 _164_
*104 _165_
*105 _166_
*106 _167_
*107 _168_
*108 _169_
*109 _170_
*110 _171_
*111 _172_
*112 _173_
*113 _174_
*114 _175_
*115 _176_
*116 _177_
*117 _178_
*118 _179_
*119 _180_
*120 _181_
*121 _182_
*122 _183_
*123 _184_
*124 _185_
*125 _186_
*126 _187_
*127 _188_
*128 _189_
*129 _190_
*130 _191_
*131 _192_
*132 _193_
*133 _194_
*134 _195_
*135 _196_
*136 _197_
*137 _238_
*138 _239_
*139 _240_
*140 _241_
*141 _242_
*142 _243_
*143 _244_
*144 _245_
*145 _246_
*146 _247_
*147 _248_
*148 _249_
*149 _250_
*150 _251_
*151 _252_
*152 _253_
*153 _254_
*154 _255_
*155 _256_
*156 _257_
*157 _258_
*158 _259_
*159 _260_
*160 _261_
*161 _262_
*162 _263_
*163 _264_
*164 _265_
*165 _266_
*166 _267_
*167 _268_
*168 _269_
*169 _270_
*170 _271_
*171 _272_
*172 _273_
*173 _274_
*174 _275_
*175 _276_
*176 _277_
*177 _278_
*178 _279_
*179 _280_
*180 _281_
*181 _332_
*182 _333_
*183 _334_
*184 _335_
*185 _336_
*186 _337_
*187 _338_
*188 _339_
*189 _340_
*190 _341_
*191 _342_
*192 _343_
*193 _344_
*194 _345_
*195 _346_
*196 _347_
*197 _348_
*198 _349_
*199 _350_
*200 _351_
*201 _352_
*202 _353_
*203 _354_
*204 _355_
*205 _356_
*206 _357_
*207 _358_
*208 _359_
*209 _360_
*210 _361_
*211 _362_
*212 _363_
*213 _364_
*214 _365_
*215 _366_
*216 _367_
*217 _368_
*218 _369_
*219 _370_
*220 _371_
*221 _372_
*222 _373_
*223 _374_
*224 _375_
*225 _376_
*226 _377_
*227 _378_
*228 _379_
*229 _380_
*230 _381_
*231 _382_
*232 _383_
*233 _384_
*234 _385_
*235 _386_
*236 _387_
*237 _388_
*238 _389_
*239 _390_
*240 _391_
*241 _392_
*242 _393_
*243 _394_
*244 _395_
*245 _396_
*246 _397_
*247 _398_
*248 _399_
*249 _400_
*250 _401_
*251 _402_
*252 _403_
*253 _404_
*254 _405_
*255 _406_
*256 _407_
*257 _408_
*258 _409_
*259 addr_ptr[0]
*260 addr_ptr[1]
*261 addr_ptr[2]
*262 addr_ptr[3]
*263 addr_ptr[4]
*264 clknet_0_clk
*265 clknet_2_0_0_clk
*266 clknet_2_1_0_clk
*267 clknet_2_2_0_clk
*268 clknet_2_3_0_clk
*269 clknet_3_0_0_clk
*270 clknet_3_1_0_clk
*271 clknet_3_2_0_clk
*272 clknet_3_3_0_clk
*273 clknet_3_4_0_clk
*274 clknet_3_5_0_clk
*275 clknet_3_6_0_clk
*276 clknet_3_7_0_clk
*277 curr_state[0]
*278 curr_state[2]
*279 data_in_reg[0]
*280 data_in_reg[10]
*281 data_in_reg[11]
*282 data_in_reg[12]
*283 data_in_reg[13]
*284 data_in_reg[14]
*285 data_in_reg[15]
*286 data_in_reg[1]
*287 data_in_reg[2]
*288 data_in_reg[3]
*289 data_in_reg[4]
*290 data_in_reg[5]
*291 data_in_reg[6]
*292 data_in_reg[7]
*293 data_in_reg[8]
*294 data_in_reg[9]
*295 init_count[0]
*296 init_count[1]
*297 init_count[2]
*298 init_count[3]
*299 init_count[4]
*300 net1
*301 net10
*302 net100
*303 net101
*304 net102
*305 net103
*306 net104
*307 net105
*308 net106
*309 net107
*310 net108
*311 net109
*312 net11
*313 net110
*314 net111
*315 net112
*316 net113
*317 net114
*318 net115
*319 net116
*320 net117
*321 net118
*322 net119
*323 net12
*324 net120
*325 net121
*326 net122
*327 net123
*328 net124
*329 net125
*330 net126
*331 net127
*332 net128
*333 net129
*334 net13
*335 net130
*336 net131
*337 net132
*338 net133
*339 net134
*340 net135
*341 net136
*342 net137
*343 net138
*344 net139
*345 net14
*346 net140
*347 net141
*348 net15
*349 net16
*350 net17
*351 net18
*352 net19
*353 net2
*354 net20
*355 net21
*356 net22
*357 net23
*358 net24
*359 net25
*360 net26
*361 net27
*362 net28
*363 net29
*364 net3
*365 net30
*366 net31
*367 net32
*368 net33
*369 net34
*370 net35
*371 net36
*372 net37
*373 net38
*374 net39
*375 net4
*376 net40
*377 net41
*378 net42
*379 net43
*380 net44
*381 net45
*382 net46
*383 net47
*384 net48
*385 net49
*386 net5
*387 net50
*388 net51
*389 net52
*390 net53
*391 net54
*392 net55
*393 net56
*394 net57
*395 net58
*396 net59
*397 net6
*398 net60
*399 net61
*400 net62
*401 net63
*402 net64
*403 net65
*404 net66
*405 net67
*406 net68
*407 net69
*408 net7
*409 net70
*410 net71
*411 net72
*412 net73
*413 net74
*414 net75
*415 net76
*416 net77
*417 net78
*418 net79
*419 net8
*420 net80
*421 net81
*422 net82
*423 net83
*424 net84
*425 net85
*426 net86
*427 net87
*428 net88
*429 net89
*430 net9
*431 net90
*432 net91
*433 net92
*434 net93
*435 net94
*436 net95
*437 net96
*438 net97
*439 net98
*440 net99
*441 product[0]
*442 product[10]
*443 product[11]
*444 product[12]
*445 product[13]
*446 product[14]
*447 product[15]
*448 product[16]
*449 product[17]
*450 product[18]
*451 product[19]
*452 product[1]
*453 product[20]
*454 product[21]
*455 product[22]
*456 product[23]
*457 product[24]
*458 product[25]
*459 product[26]
*460 product[27]
*461 product[28]
*462 product[29]
*463 product[2]
*464 product[30]
*465 product[31]
*466 product[3]
*467 product[4]
*468 product[5]
*469 product[6]
*470 product[7]
*471 product[8]
*472 product[9]
*473 sram_rdata[0]
*474 sram_rdata[10]
*475 sram_rdata[11]
*476 sram_rdata[12]
*477 sram_rdata[13]
*478 sram_rdata[14]
*479 sram_rdata[15]
*480 sram_rdata[1]
*481 sram_rdata[2]
*482 sram_rdata[3]
*483 sram_rdata[4]
*484 sram_rdata[5]
*485 sram_rdata[6]
*486 sram_rdata[7]
*487 sram_rdata[8]
*488 sram_rdata[9]
*489 sram_rdata_reg[0]
*490 sram_rdata_reg[10]
*491 sram_rdata_reg[11]
*492 sram_rdata_reg[12]
*493 sram_rdata_reg[13]
*494 sram_rdata_reg[14]
*495 sram_rdata_reg[15]
*496 sram_rdata_reg[1]
*497 sram_rdata_reg[2]
*498 sram_rdata_reg[3]
*499 sram_rdata_reg[4]
*500 sram_rdata_reg[5]
*501 sram_rdata_reg[6]
*502 sram_rdata_reg[7]
*503 sram_rdata_reg[8]
*504 sram_rdata_reg[9]
*505 u_multiplier_K[0]
*506 u_multiplier_K[1]
*507 u_multiplier_K[2]
*508 u_multiplier_K[3]
*509 u_multiplier_LODx__26_
*510 u_multiplier_LODx__27_
*511 u_multiplier_LODx__28_
*512 u_multiplier_LODx__29_
*513 u_multiplier_LODx_lod4_0__09_
*514 u_multiplier_LODx_lod4_0__10_
*515 u_multiplier_LODx_lod4_0__11_
*516 u_multiplier_LODx_lod4_1__09_
*517 u_multiplier_LODx_lod4_1__10_
*518 u_multiplier_LODx_lod4_1__11_
*519 u_multiplier_LODx_lod4_2__09_
*520 u_multiplier_LODx_lod4_2__10_
*521 u_multiplier_LODx_lod4_2__11_
*522 u_multiplier_LODx_lod4_3__09_
*523 u_multiplier_LODx_lod4_3__10_
*524 u_multiplier_LODx_lod4_3__11_
*525 u_multiplier_LODx_lod4_middle__09_
*526 u_multiplier_LODx_lod4_middle__10_
*527 u_multiplier_LODx_lod4_middle__11_
*528 u_multiplier_LODx_select[0]
*529 u_multiplier_LODx_select[1]
*530 u_multiplier_LODx_select[2]
*531 u_multiplier_LODx_select[3]
*532 u_multiplier_LODx_z[0]
*533 u_multiplier_LODx_z[10]
*534 u_multiplier_LODx_z[11]
*535 u_multiplier_LODx_z[12]
*536 u_multiplier_LODx_z[13]
*537 u_multiplier_LODx_z[14]
*538 u_multiplier_LODx_z[15]
*539 u_multiplier_LODx_z[1]
*540 u_multiplier_LODx_z[2]
*541 u_multiplier_LODx_z[3]
*542 u_multiplier_LODx_z[4]
*543 u_multiplier_LODx_z[5]
*544 u_multiplier_LODx_z[6]
*545 u_multiplier_LODx_z[7]
*546 u_multiplier_LODx_z[8]
*547 u_multiplier_LODx_z[9]
*548 u_multiplier_LODy__26_
*549 u_multiplier_LODy__27_
*550 u_multiplier_LODy__28_
*551 u_multiplier_LODy__29_
*552 u_multiplier_LODy_lod4_0__09_
*553 u_multiplier_LODy_lod4_0__10_
*554 u_multiplier_LODy_lod4_0__11_
*555 u_multiplier_LODy_lod4_1__09_
*556 u_multiplier_LODy_lod4_1__10_
*557 u_multiplier_LODy_lod4_1__11_
*558 u_multiplier_LODy_lod4_2__09_
*559 u_multiplier_LODy_lod4_2__10_
*560 u_multiplier_LODy_lod4_2__11_
*561 u_multiplier_LODy_lod4_3__09_
*562 u_multiplier_LODy_lod4_3__10_
*563 u_multiplier_LODy_lod4_3__11_
*564 u_multiplier_LODy_lod4_middle__09_
*565 u_multiplier_LODy_lod4_middle__10_
*566 u_multiplier_LODy_lod4_middle__11_
*567 u_multiplier_LODy_select[0]
*568 u_multiplier_LODy_select[1]
*569 u_multiplier_LODy_select[2]
*570 u_multiplier_LODy_select[3]
*571 u_multiplier_LODy_z[0]
*572 u_multiplier_LODy_z[10]
*573 u_multiplier_LODy_z[11]
*574 u_multiplier_LODy_z[12]
*575 u_multiplier_LODy_z[13]
*576 u_multiplier_LODy_z[14]
*577 u_multiplier_LODy_z[15]
*578 u_multiplier_LODy_z[1]
*579 u_multiplier_LODy_z[2]
*580 u_multiplier_LODy_z[3]
*581 u_multiplier_LODy_z[4]
*582 u_multiplier_LODy_z[5]
*583 u_multiplier_LODy_z[6]
*584 u_multiplier_LODy_z[7]
*585 u_multiplier_LODy_z[8]
*586 u_multiplier_LODy_z[9]
*587 u_multiplier_NOD__11_
*588 u_multiplier_NOD__12_
*589 u_multiplier_NOD__13_
*590 u_multiplier_NOD_nod_basic_unit15__5_
*591 u_multiplier_NOD_nod_cels_10_Nod_bits_02
*592 u_multiplier_NOD_nod_cels_10_Nod_bits_03
*593 u_multiplier_NOD_nod_cels_10_Nod_bits_nod_basic_unit_5
*594 u_multiplier_NOD_nod_cels_10_Nod_bits_tmp1
*595 u_multiplier_NOD_nod_cels_11_Nod_bits_02
*596 u_multiplier_NOD_nod_cels_11_Nod_bits_03
*597 u_multiplier_NOD_nod_cels_11_Nod_bits_nod_basic_unit_5
*598 u_multiplier_NOD_nod_cels_11_Nod_bits_tmp1
*599 u_multiplier_NOD_nod_cels_12_Nod_bits_02
*600 u_multiplier_NOD_nod_cels_12_Nod_bits_03
*601 u_multiplier_NOD_nod_cels_12_Nod_bits_nod_basic_unit_5
*602 u_multiplier_NOD_nod_cels_12_Nod_bits_tmp1
*603 u_multiplier_NOD_nod_cels_13_Nod_bits_02
*604 u_multiplier_NOD_nod_cels_13_Nod_bits_03
*605 u_multiplier_NOD_nod_cels_13_Nod_bits_nod_basic_unit_5
*606 u_multiplier_NOD_nod_cels_13_Nod_bits_tmp1
*607 u_multiplier_NOD_nod_cels_2_Nod_bits_02
*608 u_multiplier_NOD_nod_cels_2_Nod_bits_03
*609 u_multiplier_NOD_nod_cels_2_Nod_bits_nod_basic_unit_5
*610 u_multiplier_NOD_nod_cels_2_Nod_bits_tmp1
*611 u_multiplier_NOD_nod_cels_3_Nod_bits_02
*612 u_multiplier_NOD_nod_cels_3_Nod_bits_03
*613 u_multiplier_NOD_nod_cels_3_Nod_bits_nod_basic_unit_5
*614 u_multiplier_NOD_nod_cels_3_Nod_bits_tmp1
*615 u_multiplier_NOD_nod_cels_4_Nod_bits_02
*616 u_multiplier_NOD_nod_cels_4_Nod_bits_03
*617 u_multiplier_NOD_nod_cels_4_Nod_bits_nod_basic_unit_5
*618 u_multiplier_NOD_nod_cels_4_Nod_bits_tmp1
*619 u_multiplier_NOD_nod_cels_5_Nod_bits_02
*620 u_multiplier_NOD_nod_cels_5_Nod_bits_03
*621 u_multiplier_NOD_nod_cels_5_Nod_bits_nod_basic_unit_5
*622 u_multiplier_NOD_nod_cels_5_Nod_bits_tmp1
*623 u_multiplier_NOD_nod_cels_6_Nod_bits_02
*624 u_multiplier_NOD_nod_cels_6_Nod_bits_03
*625 u_multiplier_NOD_nod_cels_6_Nod_bits_nod_basic_unit_5
*626 u_multiplier_NOD_nod_cels_6_Nod_bits_tmp1
*627 u_multiplier_NOD_nod_cels_7_Nod_bits_02
*628 u_multiplier_NOD_nod_cels_7_Nod_bits_03
*629 u_multiplier_NOD_nod_cels_7_Nod_bits_nod_basic_unit_5
*630 u_multiplier_NOD_nod_cels_7_Nod_bits_tmp1
*631 u_multiplier_NOD_nod_cels_8_Nod_bits_02
*632 u_multiplier_NOD_nod_cels_8_Nod_bits_03
*633 u_multiplier_NOD_nod_cels_8_Nod_bits_nod_basic_unit_5
*634 u_multiplier_NOD_nod_cels_8_Nod_bits_tmp1
*635 u_multiplier_NOD_nod_cels_9_Nod_bits_02
*636 u_multiplier_NOD_nod_cels_9_Nod_bits_03
*637 u_multiplier_NOD_nod_cels_9_Nod_bits_nod_basic_unit_5
*638 u_multiplier_NOD_nod_cels_9_Nod_bits_tmp1
*639 u_multiplier_NOD_t_in[10]
*640 u_multiplier_NOD_t_in[11]
*641 u_multiplier_NOD_t_in[12]
*642 u_multiplier_NOD_t_in[1]
*643 u_multiplier_NOD_t_in[2]
*644 u_multiplier_NOD_t_in[3]
*645 u_multiplier_NOD_t_in[4]
*646 u_multiplier_NOD_t_in[5]
*647 u_multiplier_NOD_t_in[6]
*648 u_multiplier_NOD_t_in[7]
*649 u_multiplier_NOD_t_in[8]
*650 u_multiplier_NOD_t_in[9]
*651 u_multiplier_NOD_Q1[0]
*652 u_multiplier_NOD_Q1[10]
*653 u_multiplier_NOD_Q1[11]
*654 u_multiplier_NOD_Q1[12]
*655 u_multiplier_NOD_Q1[13]
*656 u_multiplier_NOD_Q1[14]
*657 u_multiplier_NOD_Q1[15]
*658 u_multiplier_NOD_Q1[1]
*659 u_multiplier_NOD_Q1[2]
*660 u_multiplier_NOD_Q1[3]
*661 u_multiplier_NOD_Q1[4]
*662 u_multiplier_NOD_Q1[5]
*663 u_multiplier_NOD_Q1[6]
*664 u_multiplier_NOD_Q1[7]
*665 u_multiplier_NOD_Q1[8]
*666 u_multiplier_NOD_Q1[9]
*667 u_multiplier_PE_code0__15_
*668 u_multiplier_PE_code0__16_
*669 u_multiplier_PE_code1__15_
*670 u_multiplier_PE_code1__16_
*671 u_multiplier_PE_code2__15_
*672 u_multiplier_PE_code2__16_
*673 u_multiplier_PE_code3__15_
*674 u_multiplier_PE_code3__16_
*675 u_multiplier_PEx_code0__15_
*676 u_multiplier_PEx_code0__16_
*677 u_multiplier_PEx_code1__15_
*678 u_multiplier_PEx_code1__16_
*679 u_multiplier_PEx_code2__15_
*680 u_multiplier_PEx_code2__16_
*681 u_multiplier_PEx_code3__15_
*682 u_multiplier_PEx_code3__16_
*683 u_multiplier_PEy_code0__15_
*684 u_multiplier_PEy_code0__16_
*685 u_multiplier_PEy_code1__15_
*686 u_multiplier_PEy_code1__16_
*687 u_multiplier_PEy_code2__15_
*688 u_multiplier_PEy_code2__16_
*689 u_multiplier_PEy_code3__15_
*690 u_multiplier_PEy_code3__16_
*691 u_multiplier__0827_
*692 u_multiplier__0828_
*693 u_multiplier__0829_
*694 u_multiplier__0830_
*695 u_multiplier__0831_
*696 u_multiplier__0832_
*697 u_multiplier__0833_
*698 u_multiplier__0834_
*699 u_multiplier__0835_
*700 u_multiplier__0836_
*701 u_multiplier__0837_
*702 u_multiplier__0838_
*703 u_multiplier__0839_
*704 u_multiplier__0840_
*705 u_multiplier__0841_
*706 u_multiplier__0842_
*707 u_multiplier__0843_
*708 u_multiplier__0844_
*709 u_multiplier__0845_
*710 u_multiplier__0846_
*711 u_multiplier__0917_
*712 u_multiplier__0918_
*713 u_multiplier__0919_
*714 u_multiplier__0920_
*715 u_multiplier__0921_
*716 u_multiplier__0922_
*717 u_multiplier__0923_
*718 u_multiplier__0924_
*719 u_multiplier__0925_
*720 u_multiplier__0926_
*721 u_multiplier__0927_
*722 u_multiplier__0928_
*723 u_multiplier__0929_
*724 u_multiplier__0930_
*725 u_multiplier__0931_
*726 u_multiplier__0932_
*727 u_multiplier__0933_
*728 u_multiplier__0934_
*729 u_multiplier__0935_
*730 u_multiplier__0936_
*731 u_multiplier__0937_
*732 u_multiplier__0938_
*733 u_multiplier__0939_
*734 u_multiplier__0940_
*735 u_multiplier__0941_
*736 u_multiplier__0942_
*737 u_multiplier__0943_
*738 u_multiplier__0944_
*739 u_multiplier__0945_
*740 u_multiplier__0946_
*741 u_multiplier__0947_
*742 u_multiplier__0948_
*743 u_multiplier__0949_
*744 u_multiplier__0950_
*745 u_multiplier__0951_
*746 u_multiplier__0952_
*747 u_multiplier__0953_
*748 u_multiplier__0954_
*749 u_multiplier__0955_
*750 u_multiplier__0956_
*751 u_multiplier__0957_
*752 u_multiplier__0958_
*753 u_multiplier__0959_
*754 u_multiplier__0960_
*755 u_multiplier__0961_
*756 u_multiplier__0962_
*757 u_multiplier__0963_
*758 u_multiplier__0964_
*759 u_multiplier__0965_
*760 u_multiplier__0966_
*761 u_multiplier__0967_
*762 u_multiplier__0968_
*763 u_multiplier__0969_
*764 u_multiplier__0970_
*765 u_multiplier__0971_
*766 u_multiplier__0972_
*767 u_multiplier__0973_
*768 u_multiplier__0974_
*769 u_multiplier__0975_
*770 u_multiplier__0976_
*771 u_multiplier__0977_
*772 u_multiplier__0978_
*773 u_multiplier__0979_
*774 u_multiplier__0980_
*775 u_multiplier__0981_
*776 u_multiplier__0982_
*777 u_multiplier__0983_
*778 u_multiplier__0984_
*779 u_multiplier__0985_
*780 u_multiplier__0986_
*781 u_multiplier__0987_
*782 u_multiplier__0988_
*783 u_multiplier__0989_
*784 u_multiplier__0990_
*785 u_multiplier__0991_
*786 u_multiplier__0992_
*787 u_multiplier__0993_
*788 u_multiplier__0994_
*789 u_multiplier__0995_
*790 u_multiplier__0996_
*791 u_multiplier__0997_
*792 u_multiplier__0998_
*793 u_multiplier__0999_
*794 u_multiplier__1000_
*795 u_multiplier__1001_
*796 u_multiplier__1002_
*797 u_multiplier__1003_
*798 u_multiplier__1004_
*799 u_multiplier__1005_
*800 u_multiplier__1006_
*801 u_multiplier__1007_
*802 u_multiplier__1008_
*803 u_multiplier__1009_
*804 u_multiplier__1010_
*805 u_multiplier__1011_
*806 u_multiplier__1012_
*807 u_multiplier__1013_
*808 u_multiplier__1014_
*809 u_multiplier__1015_
*810 u_multiplier__1016_
*811 u_multiplier__1017_
*812 u_multiplier__1018_
*813 u_multiplier__1019_
*814 u_multiplier__1020_
*815 u_multiplier__1021_
*816 u_multiplier__1022_
*817 u_multiplier__1023_
*818 u_multiplier__1024_
*819 u_multiplier__1025_
*820 u_multiplier__1026_
*821 u_multiplier__1027_
*822 u_multiplier__1028_
*823 u_multiplier__1029_
*824 u_multiplier__1030_
*825 u_multiplier__1031_
*826 u_multiplier__1032_
*827 u_multiplier__1033_
*828 u_multiplier__1034_
*829 u_multiplier__1035_
*830 u_multiplier__1036_
*831 u_multiplier__1037_
*832 u_multiplier__1038_
*833 u_multiplier__1039_
*834 u_multiplier__1040_
*835 u_multiplier__1041_
*836 u_multiplier__1042_
*837 u_multiplier__1043_
*838 u_multiplier__1044_
*839 u_multiplier__1045_
*840 u_multiplier__1046_
*841 u_multiplier__1047_
*842 u_multiplier__1048_
*843 u_multiplier__1049_
*844 u_multiplier__1050_
*845 u_multiplier__1051_
*846 u_multiplier__1052_
*847 u_multiplier__1053_
*848 u_multiplier__1054_
*849 u_multiplier__1055_
*850 u_multiplier__1056_
*851 u_multiplier__1057_
*852 u_multiplier__1058_
*853 u_multiplier__1059_
*854 u_multiplier__1060_
*855 u_multiplier__1061_
*856 u_multiplier__1062_
*857 u_multiplier__1063_
*858 u_multiplier__1064_
*859 u_multiplier__1065_
*860 u_multiplier__1066_
*861 u_multiplier__1067_
*862 u_multiplier__1068_
*863 u_multiplier__1069_
*864 u_multiplier__1070_
*865 u_multiplier__1071_
*866 u_multiplier__1072_
*867 u_multiplier__1073_
*868 u_multiplier__1074_
*869 u_multiplier__1075_
*870 u_multiplier__1076_
*871 u_multiplier__1077_
*872 u_multiplier__1078_
*873 u_multiplier__1079_
*874 u_multiplier__1080_
*875 u_multiplier__1081_
*876 u_multiplier__1082_
*877 u_multiplier__1083_
*878 u_multiplier__1084_
*879 u_multiplier__1085_
*880 u_multiplier__1086_
*881 u_multiplier__1087_
*882 u_multiplier__1088_
*883 u_multiplier__1089_
*884 u_multiplier__1090_
*885 u_multiplier__1091_
*886 u_multiplier__1092_
*887 u_multiplier__1093_
*888 u_multiplier__1094_
*889 u_multiplier__1095_
*890 u_multiplier__1096_
*891 u_multiplier__1097_
*892 u_multiplier__1098_
*893 u_multiplier__1099_
*894 u_multiplier__1100_
*895 u_multiplier__1101_
*896 u_multiplier__1102_
*897 u_multiplier__1103_
*898 u_multiplier__1104_
*899 u_multiplier__1105_
*900 u_multiplier__1106_
*901 u_multiplier__1107_
*902 u_multiplier__1108_
*903 u_multiplier__1109_
*904 u_multiplier__1110_
*905 u_multiplier__1111_
*906 u_multiplier__1112_
*907 u_multiplier__1113_
*908 u_multiplier__1114_
*909 u_multiplier__1115_
*910 u_multiplier__1116_
*911 u_multiplier__1117_
*912 u_multiplier__1118_
*913 u_multiplier__1119_
*914 u_multiplier__1120_
*915 u_multiplier__1121_
*916 u_multiplier__1122_
*917 u_multiplier__1123_
*918 u_multiplier__1124_
*919 u_multiplier__1125_
*920 u_multiplier__1126_
*921 u_multiplier__1127_
*922 u_multiplier__1128_
*923 u_multiplier__1129_
*924 u_multiplier__1130_
*925 u_multiplier__1131_
*926 u_multiplier__1132_
*927 u_multiplier__1133_
*928 u_multiplier__1134_
*929 u_multiplier__1135_
*930 u_multiplier__1136_
*931 u_multiplier__1137_
*932 u_multiplier__1138_
*933 u_multiplier__1139_
*934 u_multiplier__1140_
*935 u_multiplier__1141_
*936 u_multiplier__1142_
*937 u_multiplier__1143_
*938 u_multiplier__1144_
*939 u_multiplier__1145_
*940 u_multiplier__1146_
*941 u_multiplier__1147_
*942 u_multiplier__1148_
*943 u_multiplier__1149_
*944 u_multiplier__1150_
*945 u_multiplier__1151_
*946 u_multiplier__1152_
*947 u_multiplier__1153_
*948 u_multiplier__1154_
*949 u_multiplier__1155_
*950 u_multiplier__1156_
*951 u_multiplier__1157_
*952 u_multiplier__1158_
*953 u_multiplier__1159_
*954 u_multiplier__1160_
*955 u_multiplier__1161_
*956 u_multiplier__1162_
*957 u_multiplier__1163_
*958 u_multiplier__1164_
*959 u_multiplier__1165_
*960 u_multiplier__1166_
*961 u_multiplier__1167_
*962 u_multiplier__1168_
*963 u_multiplier__1169_
*964 u_multiplier__1170_
*965 u_multiplier__1171_
*966 u_multiplier__1172_
*967 u_multiplier__1173_
*968 u_multiplier__1174_
*969 u_multiplier__1175_
*970 u_multiplier__1176_
*971 u_multiplier__1177_
*972 u_multiplier__1178_
*973 u_multiplier__1179_
*974 u_multiplier__1180_
*975 u_multiplier__1181_
*976 u_multiplier__1182_
*977 u_multiplier__1183_
*978 u_multiplier__1184_
*979 u_multiplier__1185_
*980 u_multiplier__1186_
*981 u_multiplier__1187_
*982 u_multiplier__1188_
*983 u_multiplier__1189_
*984 u_multiplier__1190_
*985 u_multiplier__1191_
*986 u_multiplier__1192_
*987 u_multiplier__1193_
*988 u_multiplier__1194_
*989 u_multiplier__1195_
*990 u_multiplier__1196_
*991 u_multiplier__1197_
*992 u_multiplier__1198_
*993 u_multiplier__1199_
*994 u_multiplier__1200_
*995 u_multiplier__1201_
*996 u_multiplier__1202_
*997 u_multiplier__1203_
*998 u_multiplier__1204_
*999 u_multiplier__1205_
*1000 u_multiplier__1206_
*1001 u_multiplier__1207_
*1002 u_multiplier__1208_
*1003 u_multiplier__1209_
*1004 u_multiplier__1210_
*1005 u_multiplier__1211_
*1006 u_multiplier__1212_
*1007 u_multiplier__1213_
*1008 u_multiplier__1214_
*1009 u_multiplier__1215_
*1010 u_multiplier__1216_
*1011 u_multiplier__1217_
*1012 u_multiplier__1218_
*1013 u_multiplier__1219_
*1014 u_multiplier__1220_
*1015 u_multiplier__1221_
*1016 u_multiplier__1222_
*1017 u_multiplier__1223_
*1018 u_multiplier__1224_
*1019 u_multiplier__1225_
*1020 u_multiplier__1226_
*1021 u_multiplier__1227_
*1022 u_multiplier__1228_
*1023 u_multiplier__1229_
*1024 u_multiplier__1230_
*1025 u_multiplier__1231_
*1026 u_multiplier__1232_
*1027 u_multiplier__1233_
*1028 u_multiplier__1234_
*1029 u_multiplier__1235_
*1030 u_multiplier__1236_
*1031 u_multiplier__1237_
*1032 u_multiplier__1238_
*1033 u_multiplier__1239_
*1034 u_multiplier__1240_
*1035 u_multiplier__1241_
*1036 u_multiplier__1242_
*1037 u_multiplier__1243_
*1038 u_multiplier__1244_
*1039 u_multiplier__1245_
*1040 u_multiplier__1246_
*1041 u_multiplier__1247_
*1042 u_multiplier__1248_
*1043 u_multiplier__1249_
*1044 u_multiplier__1250_
*1045 u_multiplier__1251_
*1046 u_multiplier__1252_
*1047 u_multiplier__1253_
*1048 u_multiplier__1254_
*1049 u_multiplier__1255_
*1050 u_multiplier__1256_
*1051 u_multiplier__1257_
*1052 u_multiplier__1258_
*1053 u_multiplier__1259_
*1054 u_multiplier__1260_
*1055 u_multiplier__1261_
*1056 u_multiplier__1262_
*1057 u_multiplier__1263_
*1058 u_multiplier__1264_
*1059 u_multiplier__1265_
*1060 u_multiplier__1266_
*1061 u_multiplier__1267_
*1062 u_multiplier__1268_
*1063 u_multiplier__1269_
*1064 u_multiplier__1270_
*1065 u_multiplier__1271_
*1066 u_multiplier__1272_
*1067 u_multiplier__1273_
*1068 u_multiplier__1274_
*1069 u_multiplier__1275_
*1070 u_multiplier__1276_
*1071 u_multiplier__1277_
*1072 u_multiplier__1278_
*1073 u_multiplier__1279_
*1074 u_multiplier__1280_
*1075 u_multiplier__1281_
*1076 u_multiplier__1282_
*1077 u_multiplier__1283_
*1078 u_multiplier__1284_
*1079 u_multiplier__1285_
*1080 u_multiplier__1286_
*1081 u_multiplier__1287_
*1082 u_multiplier__1288_
*1083 u_multiplier__1289_
*1084 u_multiplier__1290_
*1085 u_multiplier__1291_
*1086 u_multiplier__1292_
*1087 u_multiplier__1293_
*1088 u_multiplier__1294_
*1089 u_multiplier__1295_
*1090 u_multiplier__1296_
*1091 u_multiplier__1297_
*1092 u_multiplier__1298_
*1093 u_multiplier__1299_
*1094 u_multiplier__1300_
*1095 u_multiplier__1301_
*1096 u_multiplier__1302_
*1097 u_multiplier__1303_
*1098 u_multiplier__1304_
*1099 u_multiplier__1305_
*1100 u_multiplier__1306_
*1101 u_multiplier__1307_
*1102 u_multiplier__1308_
*1103 u_multiplier__1309_
*1104 u_multiplier__1310_
*1105 u_multiplier__1311_
*1106 u_multiplier__1312_
*1107 u_multiplier__1313_
*1108 u_multiplier__1314_
*1109 u_multiplier__1315_
*1110 u_multiplier__1316_
*1111 u_multiplier__1317_
*1112 u_multiplier__1318_
*1113 u_multiplier__1319_
*1114 u_multiplier__1320_
*1115 u_multiplier__1321_
*1116 u_multiplier__1322_
*1117 u_multiplier__1323_
*1118 u_multiplier__1324_
*1119 u_multiplier__1325_
*1120 u_multiplier__1326_
*1121 u_multiplier__1327_
*1122 u_multiplier__1328_
*1123 u_multiplier__1329_
*1124 u_multiplier__1330_
*1125 u_multiplier__1331_
*1126 u_multiplier__1332_
*1127 u_multiplier__1333_
*1128 u_multiplier__1334_
*1129 u_multiplier__1335_
*1130 u_multiplier__1336_
*1131 u_multiplier__1337_
*1132 u_multiplier__1338_
*1133 u_multiplier__1339_
*1134 u_multiplier__1340_
*1135 u_multiplier__1341_
*1136 u_multiplier__1342_
*1137 u_multiplier__1343_
*1138 u_multiplier__1344_
*1139 u_multiplier__1345_
*1140 u_multiplier__1346_
*1141 u_multiplier__1347_
*1142 u_multiplier__1348_
*1143 u_multiplier__1349_
*1144 u_multiplier__1350_
*1145 u_multiplier__1351_
*1146 u_multiplier__1352_
*1147 u_multiplier__1353_
*1148 u_multiplier__1354_
*1149 u_multiplier__1355_
*1150 u_multiplier__1356_
*1151 u_multiplier__1357_
*1152 u_multiplier__1358_
*1153 u_multiplier__1359_
*1154 u_multiplier__1360_
*1155 u_multiplier__1361_
*1156 u_multiplier__1362_
*1157 u_multiplier__1363_
*1158 u_multiplier__1364_
*1159 u_multiplier__1365_
*1160 u_multiplier__1366_
*1161 u_multiplier__1367_
*1162 u_multiplier__1368_
*1163 u_multiplier__1369_
*1164 u_multiplier__1370_
*1165 u_multiplier__1371_
*1166 u_multiplier__1372_
*1167 u_multiplier__1373_
*1168 u_multiplier__1374_
*1169 u_multiplier__1375_
*1170 u_multiplier__1376_
*1171 u_multiplier__1377_
*1172 u_multiplier__1378_
*1173 u_multiplier__1379_
*1174 u_multiplier__1380_
*1175 u_multiplier__1381_
*1176 u_multiplier__1382_
*1177 u_multiplier__1383_
*1178 u_multiplier__1384_
*1179 u_multiplier__1385_
*1180 u_multiplier__1386_
*1181 u_multiplier__1387_
*1182 u_multiplier__1388_
*1183 u_multiplier__1389_
*1184 u_multiplier__1390_
*1185 u_multiplier__1391_
*1186 u_multiplier__1392_
*1187 u_multiplier__1393_
*1188 u_multiplier__1394_
*1189 u_multiplier__1395_
*1190 u_multiplier__1396_
*1191 u_multiplier__1397_
*1192 u_multiplier__1398_
*1193 u_multiplier__1399_
*1194 u_multiplier__1400_
*1195 u_multiplier__1401_
*1196 u_multiplier__1402_
*1197 u_multiplier__1403_
*1198 u_multiplier__1404_
*1199 u_multiplier__1405_
*1200 u_multiplier__1406_
*1201 u_multiplier__1407_
*1202 u_multiplier__1408_
*1203 u_multiplier__1409_
*1204 u_multiplier__1410_
*1205 u_multiplier__1411_
*1206 u_multiplier__1412_
*1207 u_multiplier__1413_
*1208 u_multiplier__1414_
*1209 u_multiplier__1415_
*1210 u_multiplier__1416_
*1211 u_multiplier__1417_
*1212 u_multiplier__1418_
*1213 u_multiplier__1419_
*1214 u_multiplier__1420_
*1215 u_multiplier__1421_
*1216 u_multiplier__1422_
*1217 u_multiplier__1423_
*1218 u_multiplier__1424_
*1219 u_multiplier__1425_
*1220 u_multiplier__1426_
*1221 u_multiplier__1427_
*1222 u_multiplier__1428_
*1223 u_multiplier__1429_
*1224 u_multiplier__1430_
*1225 u_multiplier__1431_
*1226 u_multiplier__1432_
*1227 u_multiplier__1433_
*1228 u_multiplier__1434_
*1229 u_multiplier__1435_
*1230 u_multiplier__1436_
*1231 u_multiplier__1437_
*1232 u_multiplier__1438_
*1233 u_multiplier__1439_
*1234 u_multiplier__1440_
*1235 u_multiplier__1441_
*1236 u_multiplier__1442_
*1237 u_multiplier__1443_
*1238 u_multiplier__1444_
*1239 u_multiplier__1445_
*1240 u_multiplier__1446_
*1241 u_multiplier__1447_
*1242 u_multiplier__1448_
*1243 u_multiplier__1449_
*1244 u_multiplier__1450_
*1245 u_multiplier__1451_
*1246 u_multiplier__1452_
*1247 u_multiplier__1453_
*1248 u_multiplier__1454_
*1249 u_multiplier__1455_
*1250 u_multiplier__1456_
*1251 u_multiplier__1457_
*1252 u_multiplier__1458_
*1253 u_multiplier__1459_
*1254 u_multiplier__1460_
*1255 u_multiplier__1461_
*1256 u_multiplier__1462_
*1257 u_multiplier__1463_
*1258 u_multiplier__1464_
*1259 u_multiplier__1465_
*1260 u_multiplier__1466_
*1261 u_multiplier__1467_
*1262 u_multiplier__1468_
*1263 u_multiplier__1469_
*1264 u_multiplier__1470_
*1265 u_multiplier__1471_
*1266 u_multiplier__1472_
*1267 u_multiplier__1473_
*1268 u_multiplier__1474_
*1269 u_multiplier__1475_
*1270 u_multiplier__1476_
*1271 u_multiplier__1477_
*1272 u_multiplier__1478_
*1273 u_multiplier__1479_
*1274 u_multiplier__1480_
*1275 u_multiplier__1481_
*1276 u_multiplier__1482_
*1277 u_multiplier__1483_
*1278 u_multiplier__1484_
*1279 u_multiplier__1485_
*1280 u_multiplier__1486_
*1281 u_multiplier__1487_
*1282 u_multiplier__1488_
*1283 u_multiplier__1489_
*1284 u_multiplier__1490_
*1285 u_multiplier__1491_
*1286 u_multiplier__1492_
*1287 u_multiplier__1493_
*1288 u_multiplier__1494_
*1289 u_multiplier__1495_
*1290 u_multiplier__1496_
*1291 u_multiplier__1497_
*1292 u_multiplier__1498_
*1293 u_multiplier__1499_
*1294 u_multiplier__1500_
*1295 u_multiplier__1501_
*1296 u_multiplier__1502_
*1297 u_multiplier__1503_
*1298 u_multiplier__1504_
*1299 u_multiplier__1505_
*1300 u_multiplier__1506_
*1301 u_multiplier__1507_
*1302 u_multiplier__1508_
*1303 u_multiplier__1509_
*1304 u_multiplier__1510_
*1305 u_multiplier__1511_
*1306 u_multiplier__1512_
*1307 u_multiplier__1513_
*1308 u_multiplier__1514_
*1309 u_multiplier__1515_
*1310 u_multiplier__1516_
*1311 u_multiplier__1517_
*1312 u_multiplier__1518_
*1313 u_multiplier__1519_
*1314 u_multiplier__1520_
*1315 u_multiplier__1521_
*1316 u_multiplier__1522_
*1317 u_multiplier__1523_
*1318 u_multiplier__1524_
*1319 u_multiplier__1525_
*1320 u_multiplier__1526_
*1321 u_multiplier__1527_
*1322 u_multiplier__1528_
*1323 u_multiplier__1529_
*1324 u_multiplier__1530_
*1325 u_multiplier__1531_
*1326 u_multiplier__1532_
*1327 u_multiplier__1533_
*1328 u_multiplier__1534_
*1329 u_multiplier__1535_
*1330 u_multiplier__1536_