*SPEF "ieee 1481-1999"
*DESIGN "sram_multiplier_system"
*DATE "15:23:19 Wednesday October 01, 2025"
*VENDOR "The OpenROAD Project"
*PROGRAM "OpenROAD"
*VERSION "v2.0-17598-ga008522d8"
*DESIGN_FLOW "NAME_SCOPE LOCAL" "PIN_CAP NONE"
*DIVIDER /
*DELIMITER :
*BUS_DELIMITER []
*T_UNIT 1 NS
*C_UNIT 1 PF
*R_UNIT 1 OHM
*L_UNIT 1 HENRY

*NAME_MAP
*1 clk
*2 data_in[0]
*3 data_in[10]
*4 data_in[11]
*5 data_in[12]
*6 data_in[13]
*7 data_in[14]
*8 data_in[15]
*9 data_in[16]
*10 data_in[17]
*11 data_in[18]
*12 data_in[19]
*13 data_in[1]
*14 data_in[20]
*15 data_in[21]
*16 data_in[22]
*17 data_in[23]
*18 data_in[24]
*19 data_in[25]
*20 data_in[26]
*21 data_in[27]
*22 data_in[28]
*23 data_in[29]
*24 data_in[2]
*25 data_in[30]
*26 data_in[31]
*27 data_in[3]
*28 data_in[4]
*29 data_in[5]
*30 data_in[6]
*31 data_in[7]
*32 data_in[8]
*33 data_in[9]
*34 data_out[0]
*35 data_out[10]
*36 data_out[11]
*37 data_out[12]
*38 data_out[13]
*39 data_out[14]
*40 data_out[15]
*41 data_out[16]
*42 data_out[17]
*43 data_out[18]
*44 data_out[19]
*45 data_out[1]
*46 data_out[20]
*47 data_out[21]
*48 data_out[22]
*49 data_out[23]
*50 data_out[24]
*51 data_out[25]
*52 data_out[26]
*53 data_out[27]
*54 data_out[28]
*55 data_out[29]
*56 data_out[2]
*57 data_out[30]
*58 data_out[31]
*59 data_out[32]
*60 data_out[33]
*61 data_out[34]
*62 data_out[35]
*63 data_out[36]
*64 data_out[37]
*65 data_out[38]
*66 data_out[39]
*67 data_out[3]
*68 data_out[40]
*69 data_out[41]
*70 data_out[42]
*71 data_out[43]
*72 data_out[44]
*73 data_out[45]
*74 data_out[46]
*75 data_out[47]
*76 data_out[48]
*77 data_out[49]
*78 data_out[4]
*79 data_out[50]
*80 data_out[51]
*81 data_out[52]
*82 data_out[53]
*83 data_out[54]
*84 data_out[55]
*85 data_out[56]
*86 data_out[57]
*87 data_out[58]
*88 data_out[59]
*89 data_out[5]
*90 data_out[60]
*91 data_out[61]
*92 data_out[62]
*93 data_out[63]
*94 data_out[6]
*95 data_out[7]
*96 data_out[8]
*97 data_out[9]
*98 curr_state[1]
*99 init_enable
*100 pe_ce
*101 rst_n
*102 valid_reg_out
*105 _0164_
*106 _0165_
*107 _0166_
*108 _0167_
*109 _0168_
*110 _0169_
*111 _0170_
*112 _0171_
*113 _0172_
*114 _0173_
*115 _0174_
*116 _0175_
*117 _0176_
*118 _0177_
*119 _0178_
*120 _0179_
*121 _0180_
*122 _0181_
*123 _0182_
*124 _0183_
*125 _0184_
*126 _0185_
*127 _0186_
*128 _0187_
*129 _0188_
*130 _0189_
*131 _0190_
*132 _0191_
*133 _0192_
*134 _0193_
*135 _0194_
*136 _0195_
*137 _0196_
*138 _0197_
*139 _0198_
*140 _0199_
*141 _0200_
*142 _0201_
*143 _0202_
*144 _0203_
*145 _0204_
*146 _0205_
*147 _0206_
*148 _0207_
*149 _0208_
*150 _0209_
*151 _0210_
*152 _0211_
*153 _0212_
*154 _0213_
*155 _0214_
*156 _0215_
*157 _0216_
*158 _0217_
*159 _0218_
*160 _0219_
*161 _0220_
*162 _0221_
*163 _0222_
*164 _0223_
*165 _0224_
*166 _0225_
*167 _0226_
*168 _0227_
*169 _0228_
*170 _0229_
*171 _0230_
*172 _0231_
*173 _0232_
*174 _0233_
*175 _0234_
*176 _0235_
*177 _0236_
*178 _0237_
*179 _0238_
*180 _0239_
*181 _0240_
*182 _0241_
*183 _0242_
*184 _0243_
*185 _0244_
*186 _0245_
*187 _0246_
*188 _0247_
*189 _0248_
*190 _0249_
*191 _0250_
*192 _0251_
*193 _0252_
*194 _0253_
*195 _0254_
*196 _0255_
*197 _0256_
*198 _0257_
*199 _0258_
*200 _0259_
*201 _0260_
*202 _0261_
*203 _0262_
*204 _0263_
*205 _0264_
*206 _0265_
*207 _0266_
*208 _0267_
*209 _0268_
*210 _0269_
*211 _0270_
*212 _0271_
*213 _0272_
*214 _0273_
*215 _0274_
*216 _0275_
*217 _0276_
*218 _0277_
*219 _0278_
*220 _0279_
*221 _0280_
*222 _0281_
*223 _0282_
*224 _0283_
*225 _0284_
*226 _0285_
*227 _0286_
*228 _0287_
*229 _0288_
*230 _0289_
*231 _0290_
*232 _0291_
*233 _0292_
*234 _0293_
*235 _0294_
*236 _0295_
*237 _0296_
*238 _0297_
*239 _0298_
*240 _0299_
*241 _0300_
*242 _0301_
*243 _0302_
*244 _0303_
*245 _0304_
*246 _0305_
*247 _0306_
*248 _0307_
*249 _0308_
*250 _0309_
*251 _0371_
*252 _0372_
*253 _0373_
*254 _0374_
*255 _0375_
*256 _0376_
*257 _0377_
*258 _0378_
*259 _0379_
*260 _0380_
*261 _0381_
*262 _0382_
*263 _0383_
*264 _0384_
*265 _0385_
*266 _0386_
*267 _0387_
*268 _0388_
*269 _0389_
*270 _0390_
*271 _0391_
*272 _0392_
*273 _0393_
*274 _0394_
*275 _0395_
*276 _0396_
*277 _0397_
*278 _0398_
*279 _0399_
*280 _0400_
*281 _0401_
*282 _0402_
*283 _0403_
*284 _0404_
*285 _0405_
*286 _0406_
*287 _0407_
*288 _0408_
*289 _0409_
*290 _0410_
*291 _0411_
*292 _0412_
*293 _0413_
*294 _0414_
*295 _0415_
*296 _0416_
*297 _0417_
*298 _0418_
*299 _0419_
*300 _0420_
*301 _0421_
*302 _0422_
*303 _0423_
*304 _0424_
*305 _0425_
*306 _0426_
*307 _0427_
*308 _0526_
*309 _0527_
*310 _0528_
*311 _0529_
*312 _0530_
*313 _0531_
*314 _0532_
*315 _0533_
*316 _0534_
*317 _0535_
*318 _0536_
*319 _0537_
*320 _0538_
*321 _0539_
*322 _0540_
*323 _0541_
*324 _0542_
*325 _0543_
*326 _0544_
*327 _0545_
*328 _0546_
*329 _0547_
*330 _0548_
*331 _0549_
*332 _0550_
*333 _0551_
*334 _0552_
*335 _0553_
*336 _0554_
*337 _0555_
*338 _0556_
*339 _0557_
*340 _0558_
*341 _0559_
*342 _0560_
*343 _0561_
*344 _0562_
*345 _0563_
*346 _0564_
*347 _0565_
*348 _0566_
*349 _0567_
*350 _0568_
*351 _0569_
*352 _0570_
*353 _0571_
*354 _0572_
*355 _0573_
*356 _0574_
*357 _0575_
*358 _0576_
*359 _0577_
*360 _0578_
*361 _0579_
*362 _0580_
*363 _0581_
*364 _0582_
*365 _0583_
*366 _0584_
*367 _0585_
*368 _0586_
*369 _0587_
*370 _0588_
*371 _0589_
*372 _0590_
*373 _0591_
*374 _0592_
*375 _0593_
*376 _0594_
*377 _0595_
*378 _0596_
*379 _0597_
*380 _0598_
*381 _0599_
*382 _0600_
*383 _0601_
*384 _0602_
*385 _0603_
*386 _0604_
*387 _0605_
*388 _0606_
*389 _0607_
*390 _0608_
*391 _0609_
*392 _0610_
*393 _0611_
*394 _0612_
*395 _0613_
*396 _0614_
*397 _0615_
*398 _0616_
*399 _0617_
*400 _0618_
*401 _0619_
*402 _0620_
*403 _0621_
*404 _0622_
*405 _0623_
*406 _0624_
*407 _0625_
*408 _0626_
*409 _0627_
*410 _0628_
*411 _0629_
*412 _0630_
*413 _0631_
*414 _0632_
*415 _0633_
*416 _0634_
*417 _0635_
*418 _0636_
*419 _0637_
*420 _0638_
*421 _0639_
*422 _0640_
*423 _0641_
*424 _0642_
*425 _0643_
*426 _0644_
*427 _0645_
*428 _0646_
*429 _0647_
*430 _0648_
*431 _0649_
*432 _0650_
*433 _0651_
*434 _0652_
*435 _0653_
*436 _0654_
*437 _0655_
*438 _0656_
*439 _0657_
*440 _0658_
*441 _0659_
*442 _0660_
*443 _0661_
*444 _0662_
*445 _0663_
*446 _0664_
*447 _0665_
*448 _0666_
*449 _0667_
*450 _0668_
*451 _0669_
*452 _0683_[25]
*453 _0683_[26]
*454 _0683_[27]
*455 _0683_[28]
*456 _0683_[29]
*457 _0683_[30]
*458 _0683_[31]
*459 addr_ptr[0]
*460 addr_ptr[1]
*461 addr_ptr[2]
*462 addr_ptr[3]
*463 addr_ptr[4]
*464 addr_ptr[5]
*465 clknet_0_clk
*466 clknet_1_0_0_clk
*467 clknet_1_1_0_clk
*468 clknet_2_0_0_clk
*469 clknet_2_1_0_clk
*470 clknet_2_2_0_clk
*471 clknet_2_3_0_clk
*472 clknet_4_0__leaf_clk
*473 clknet_4_10__leaf_clk
*474 clknet_4_11__leaf_clk
*475 clknet_4_12__leaf_clk
*476 clknet_4_13__leaf_clk
*477 clknet_4_14__leaf_clk
*478 clknet_4_15__leaf_clk
*479 clknet_4_1__leaf_clk
*480 clknet_4_2__leaf_clk
*481 clknet_4_3__leaf_clk
*482 clknet_4_4__leaf_clk
*483 clknet_4_5__leaf_clk
*484 clknet_4_6__leaf_clk
*485 clknet_4_7__leaf_clk
*486 clknet_4_8__leaf_clk
*487 clknet_4_9__leaf_clk
*488 curr_state[0]
*489 curr_state[2]
*490 data_in_reg[0]
*491 data_in_reg[10]
*492 data_in_reg[11]
*493 data_in_reg[12]
*494 data_in_reg[13]
*495 data_in_reg[14]
*496 data_in_reg[15]
*497 data_in_reg[16]
*498 data_in_reg[17]
*499 data_in_reg[18]
*500 data_in_reg[19]
*501 data_in_reg[1]
*502 data_in_reg[20]
*503 data_in_reg[21]
*504 data_in_reg[22]
*505 data_in_reg[23]
*506 data_in_reg[24]
*507 data_in_reg[2]
*508 data_in_reg[3]
*509 data_in_reg[4]
*510 data_in_reg[5]
*511 data_in_reg[6]
*512 data_in_reg[7]
*513 data_in_reg[8]
*514 data_in_reg[9]
*515 init_count[0]
*516 init_count[1]
*517 init_count[2]
*518 init_count[3]
*519 init_count[4]
*520 init_count[5]
*521 net1
*522 net10
*523 net100
*524 net101
*525 net102
*526 net103
*527 net104
*528 net105
*529 net106
*530 net107
*531 net108
*532 net109
*533 net11
*534 net110
*535 net111
*536 net112
*537 net113
*538 net114
*539 net115
*540 net116
*541 net117
*542 net118
*543 net119
*544 net12
*545 net120
*546 net121
*547 net122
*548 net123
*549 net124
*550 net125
*551 net126
*552 net127
*553 net128
*554 net129
*555 net13
*556 net130
*557 net131
*558 net132
*559 net133
*560 net134
*561 net135
*562 net136
*563 net137
*564 net138
*565 net139
*566 net14
*567 net140
*568 net141
*569 net142
*570 net143
*571 net144
*572 net145
*573 net146
*574 net147
*575 net148
*576 net149
*577 net15
*578 net150
*579 net151
*580 net152
*581 net153
*582 net154
*583 net155
*584 net156
*585 net157
*586 net158
*587 net159
*588 net16
*589 net160
*590 net161
*591 net162
*592 net163
*593 net164
*594 net165
*595 net166
*596 net167
*597 net168
*598 net169
*599 net17
*600 net170
*601 net171
*602 net172
*603 net173
*604 net174
*605 net175
*606 net176
*607 net177
*608 net178
*609 net179
*610 net18
*611 net180
*612 net181
*613 net182
*614 net183
*615 net184
*616 net185
*617 net186
*618 net187
*619 net188
*620 net189
*621 net19
*622 net190
*623 net191
*624 net192
*625 net193
*626 net194
*627 net195
*628 net196
*629 net197
*630 net198
*631 net199
*632 net2
*633 net20
*634 net200
*635 net201
*636 net202
*637 net203
*638 net204
*639 net205
*640 net206
*641 net207
*642 net208
*643 net209
*644 net21
*645 net210
*646 net211
*647 net212
*648 net213
*649 net214
*650 net215
*651 net216
*652 net217
*653 net218
*654 net219
*655 net22
*656 net220
*657 net221
*658 net222
*659 net223
*660 net224
*661 net225
*662 net23
*663 net24
*664 net25
*665 net26
*666 net27
*667 net28
*668 net29
*669 net3
*670 net30
*671 net31
*672 net32
*673 net33
*674 net34
*675 net35
*676 net36
*677 net37
*678 net38
*679 net39
*680 net4
*681 net40
*682 net41
*683 net42
*684 net43
*685 net44
*686 net45
*687 net46
*688 net47
*689 net48
*690 net49
*691 net5
*692 net50
*693 net51
*694 net52
*695 net53
*696 net54
*697 net55
*698 net56
*699 net57
*700 net58
*701 net59
*702 net6
*703 net60
*704 net61
*705 net62
*706 net63
*707 net64
*708 net65
*709 net66
*710 net67
*711 net68
*712 net69
*713 net7
*714 net70
*715 net71
*716 net72
*717 net73
*718 net74
*719 net75
*720 net76
*721 net77
*722 net78
*723 net79
*724 net8
*725 net80
*726 net81
*727 net82
*728 net83
*729 net84
*730 net85
*731 net86
*732 net87
*733 net88
*734 net89
*735 net9
*736 net90
*737 net91
*738 net92
*739 net93
*740 net94
*741 net95
*742 net96
*743 net97
*744 net98
*745 net99
*746 product[0]
*747 product[10]
*748 product[11]
*749 product[12]
*750 product[13]
*751 product[14]
*752 product[15]
*753 product[16]
*754 product[17]
*755 product[18]
*756 product[19]
*757 product[1]
*758 product[20]
*759 product[21]
*760 product[22]
*761 product[23]
*762 product[24]
*763 product[25]
*764 product[26]
*765 product[27]
*766 product[28]
*767 product[29]
*768 product[2]
*769 product[30]
*770 product[31]
*771 product[32]
*772 product[33]
*773 product[34]
*774 product[35]
*775 product[36]
*776 product[37]
*777 product[38]
*778 product[39]
*779 product[3]
*780 product[40]
*781 product[41]
*782 product[42]
*783 product[43]
*784 product[44]
*785 product[45]
*786 product[46]
*787 product[47]
*788 product[48]
*789 product[49]
*790 product[4]
*791 product[50]
*792 product[51]
*793 product[52]
*794 product[53]
*795 product[54]
*796 product[55]
*797 product[56]
*798 product[57]
*799 product[58]
*800 product[59]
*801 product[5]
*802 product[60]
*803 product[61]
*804 product[62]
*805 product[63]
*806 product[6]
*807 product[7]
*808 product[8]
*809 product[9]
*810 sram_rdata[0]
*811 sram_rdata[10]
*812 sram_rdata[11]
*813 sram_rdata[12]
*814 sram_rdata[13]
*815 sram_rdata[14]
*816 sram_rdata[15]
*817 sram_rdata[16]
*818 sram_rdata[17]
*819 sram_rdata[18]
*820 sram_rdata[19]
*821 sram_rdata[1]
*822 sram_rdata[20]
*823 sram_rdata[21]
*824 sram_rdata[22]
*825 sram_rdata[23]
*826 sram_rdata[24]
*827 sram_rdata[25]
*828 sram_rdata[26]
*829 sram_rdata[27]
*830 sram_rdata[28]
*831 sram_rdata[29]
*832 sram_rdata[2]
*833 sram_rdata[30]
*834 sram_rdata[31]
*835 sram_rdata[3]
*836 sram_rdata[4]
*837 sram_rdata[5]
*838 sram_rdata[6]
*839 sram_rdata[7]
*840 sram_rdata[8]
*841 sram_rdata[9]
*842 sram_rdata_reg[0]
*843 sram_rdata_reg[10]
*844 sram_rdata_reg[11]
*845 sram_rdata_reg[12]
*846 sram_rdata_reg[13]
*847 sram_rdata_reg[14]
*848 sram_rdata_reg[15]
*849 sram_rdata_reg[16]
*850 sram_rdata_reg[17]
*851 sram_rdata_reg[18]
*852 sram_rdata_reg[19]
*853 sram_rdata_reg[1]
*854 sram_rdata_reg[20]
*855 sram_rdata_reg[21]
*856 sram_rdata_reg[22]
*857 sram_rdata_reg[23]
*858 sram_rdata_reg[24]
*859 sram_rdata_reg[25]
*860 sram_rdata_reg[26]
*861 sram_rdata_reg[27]
*862 sram_rdata_reg[28]
*863 sram_rdata_reg[29]
*864 sram_rdata_reg[2]
*865 sram_rdata_reg[30]
*866 sram_rdata_reg[31]
*867 sram_rdata_reg[3]
*868 sram_rdata_reg[4]
*869 sram_rdata_reg[5]
*870 sram_rdata_reg[6]
*871 sram_rdata_reg[7]
*872 sram_rdata_reg[8]
*873 sram_rdata_reg[9]
*874 u_multiplier_K[0]
*875 u_multiplier_K[1]
*876 u_multiplier_K[2]
*877 u_multiplier_K[3]
*878 u_multiplier_K[4]
*879 u_multiplier_LODx__054_
*880 u_multiplier_LODx__055_
*881 u_multiplier_LODx__056_
*882 u_multiplier_LODx__057_
*883 u_multiplier_LODx__058_
*884 u_multiplier_LODx__059_
*885 u_multiplier_LODx__060_
*886 u_multiplier_LODx__061_
*887 u_multiplier_LODx__062_
*888 u_multiplier_LODx__063_
*889 u_multiplier_LODx__064_
*890 u_multiplier_LODx__065_
*891 u_multiplier_LODx__066_
*892 u_multiplier_LODx__067_
*893 u_multiplier_LODx__068_
*894 u_multiplier_LODx__077_
*895 u_multiplier_LODx__078_
*896 u_multiplier_LODx__079_
*897 u_multiplier_LODx__080_
*898 u_multiplier_LODx__081_
*899 u_multiplier_LODx__082_
*900 u_multiplier_LODx__083_
*901 u_multiplier_LODx__084_
*902 u_multiplier_LODx_lod4_0__09_
*903 u_multiplier_LODx_lod4_0__10_
*904 u_multiplier_LODx_lod4_0__11_
*905 u_multiplier_LODx_lod4_1__09_
*906 u_multiplier_LODx_lod4_1__10_
*907 u_multiplier_LODx_lod4_1__11_
*908 u_multiplier_LODx_lod4_2__09_
*909 u_multiplier_LODx_lod4_2__10_
*910 u_multiplier_LODx_lod4_2__11_
*911 u_multiplier_LODx_lod4_3__09_
*912 u_multiplier_LODx_lod4_3__10_
*913 u_multiplier_LODx_lod4_3__11_
*914 u_multiplier_LODx_lod4_4__09_
*915 u_multiplier_LODx_lod4_4__10_
*916 u_multiplier_LODx_lod4_4__11_
*917 u_multiplier_LODx_lod4_5__09_
*918 u_multiplier_LODx_lod4_5__10_
*919 u_multiplier_LODx_lod4_5__11_
*920 u_multiplier_LODx_lod4_6__09_
*921 u_multiplier_LODx_lod4_6__10_
*922 u_multiplier_LODx_lod4_6__11_
*923 u_multiplier_LODx_lod4_7__09_
*924 u_multiplier_LODx_lod4_7__10_
*925 u_multiplier_LODx_lod4_7__11_
*926 u_multiplier_LODx_lod4_middle_high__09_
*927 u_multiplier_LODx_lod4_middle_high__10_
*928 u_multiplier_LODx_lod4_middle_high__11_
*929 u_multiplier_LODx_lod4_middle_low__09_
*930 u_multiplier_LODx_lod4_middle_low__10_
*931 u_multiplier_LODx_lod4_middle_low__11_
*932 u_multiplier_LODx_select_high[0]
*933 u_multiplier_LODx_select_high[1]
*934 u_multiplier_LODx_select_high[2]
*935 u_multiplier_LODx_select_high[3]
*936 u_multiplier_LODx_select_low[0]
*937 u_multiplier_LODx_select_low[1]
*938 u_multiplier_LODx_select_low[2]
*939 u_multiplier_LODx_select_low[3]
*940 u_multiplier_LODx_z[0]
*941 u_multiplier_LODx_z[10]
*942 u_multiplier_LODx_z[11]
*943 u_multiplier_LODx_z[12]
*944 u_multiplier_LODx_z[13]
*945 u_multiplier_LODx_z[14]
*946 u_multiplier_LODx_z[15]
*947 u_multiplier_LODx_z[16]
*948 u_multiplier_LODx_z[17]
*949 u_multiplier_LODx_z[18]
*950 u_multiplier_LODx_z[19]
*951 u_multiplier_LODx_z[1]
*952 u_multiplier_LODx_z[20]
*953 u_multiplier_LODx_z[21]
*954 u_multiplier_LODx_z[22]
*955 u_multiplier_LODx_z[23]
*956 u_multiplier_LODx_z[24]
*957 u_multiplier_LODx_z[25]
*958 u_multiplier_LODx_z[26]
*959 u_multiplier_LODx_z[27]
*960 u_multiplier_LODx_z[28]
*961 u_multiplier_LODx_z[29]
*962 u_multiplier_LODx_z[2]
*963 u_multiplier_LODx_z[30]
*964 u_multiplier_LODx_z[31]
*965 u_multiplier_LODx_z[3]
*966 u_multiplier_LODx_z[4]
*967 u_multiplier_LODx_z[5]
*968 u_multiplier_LODx_z[6]
*969 u_multiplier_LODx_z[7]
*970 u_multiplier_LODx_z[8]
*971 u_multiplier_LODx_z[9]
*972 u_multiplier_LODy__054_
*973 u_multiplier_LODy__055_
*974 u_multiplier_LODy__056_
*975 u_multiplier_LODy__057_
*976 u_multiplier_LODy__058_
*977 u_multiplier_LODy__059_
*978 u_multiplier_LODy__060_
*979 u_multiplier_LODy__061_
*980 u_multiplier_LODy__062_
*981 u_multiplier_LODy__063_
*982 u_multiplier_LODy__064_
*983 u_multiplier_LODy__065_
*984 u_multiplier_LODy__066_
*985 u_multiplier_LODy__067_
*986 u_multiplier_LODy__068_
*987 u_multiplier_LODy__077_
*988 u_multiplier_LODy__078_
*989 u_multiplier_LODy__079_
*990 u_multiplier_LODy__080_
*991 u_multiplier_LODy__081_
*992 u_multiplier_LODy__082_
*993 u_multiplier_LODy__083_
*994 u_multiplier_LODy__084_
*995 u_multiplier_LODy_lod4_0__09_
*996 u_multiplier_LODy_lod4_0__10_
*997 u_multiplier_LODy_lod4_0__11_
*998 u_multiplier_LODy_lod4_1__09_
*999 u_multiplier_LODy_lod4_1__10_
*1000 u_multiplier_LODy_lod4_1__11_
*1001 u_multiplier_LODy_lod4_2__09_
*1002 u_multiplier_LODy_lod4_2__10_
*1003 u_multiplier_LODy_lod4_2__11_
*1004 u_multiplier_LODy_lod4_3__09_
*1005 u_multiplier_LODy_lod4_3__10_
*1006 u_multiplier_LODy_lod4_3__11_
*1007 u_multiplier_LODy_lod4_4__09_
*1008 u_multiplier_LODy_lod4_4__10_
*1009 u_multiplier_LODy_lod4_4__11_
*1010 u_multiplier_LODy_lod4_5__09_
*1011 u_multiplier_LODy_lod4_5__10_
*1012 u_multiplier_LODy_lod4_5__11_
*1013 u_multiplier_LODy_lod4_6__09_
*1014 u_multiplier_LODy_lod4_6__10_
*1015 u_multiplier_LODy_lod4_6__11_
*1016 u_multiplier_LODy_lod4_7__09_
*1017 u_multiplier_LODy_lod4_7__10_
*1018 u_multiplier_LODy_lod4_7__11_
*1019 u_multiplier_LODy_lod4_middle_high__09_
*1020 u_multiplier_LODy_lod4_middle_high__10_
*1021 u_multiplier_LODy_lod4_middle_high__11_
*1022 u_multiplier_LODy_lod4_middle_low__09_
*1023 u_multiplier_LODy_lod4_middle_low__10_
*1024 u_multiplier_LODy_lod4_middle_low__11_
*1025 u_multiplier_LODy_select_high[0]
*1026 u_multiplier_LODy_select_high[1]
*1027 u_multiplier_LODy_select_high[2]
*1028 u_multiplier_LODy_select_high[3]
*1029 u_multiplier_LODy_select_low[0]
*1030 u_multiplier_LODy_select_low[1]
*1031 u_multiplier_LODy_select_low[2]
*1032 u_multiplier_LODy_select_low[3]
*1033 u_multiplier_LODy_z[0]
*1034 u_multiplier_LODy_z[10]
*1035 u_multiplier_LODy_z[11]
*1036 u_multiplier_LODy_z[12]
*1037 u_multiplier_LODy_z[13]
*1038 u_multiplier_LODy_z[14]
*1039 u_multiplier_LODy_z[15]
*1040 u_multiplier_LODy_z[16]
*1041 u_multiplier_LODy_z[17]
*1042 u_multiplier_LODy_z[18]
*1043 u_multiplier_LODy_z[19]
*1044 u_multiplier_LODy_z[1]
*1045 u_multiplier_LODy_z[20]
*1046 u_multiplier_LODy_z[21]
*1047 u_multiplier_LODy_z[22]
*1048 u_multiplier_LODy_z[23]
*1049 u_multiplier_LODy_z[24]
*1050 u_multiplier_LODy_z[25]
*1051 u_multiplier_LODy_z[26]
*1052 u_multiplier_LODy_z[27]
*1053 u_multiplier_LODy_z[28]
*1054 u_multiplier_LODy_z[29]
*1055 u_multiplier_LODy_z[2]
*1056 u_multiplier_LODy_z[30]
*1057 u_multiplier_LODy_z[31]
*1058 u_multiplier_LODy_z[3]
*1059 u_multiplier_LODy_z[4]
*1060 u_multiplier_LODy_z[5]
*1061 u_multiplier_LODy_z[6]
*1062 u_multiplier_LODy_z[7]
*1063 u_multiplier_LODy_z[8]
*1064 u_multiplier_LODy_z[9]
*1065 u_multiplier_NOD__11_
*1066 u_multiplier_NOD__12_
*1067 u_multiplier_NOD__13_
*1068 u_multiplier_NOD_nod_basic_unit31__5_
*1069 u_multiplier_NOD_nod_cels_10_Nod_bits_02
*1070 u_multiplier_NOD_nod_cels_10_Nod_bits_03
*1071 u_multiplier_NOD_nod_cels_10_Nod_bits_nod_basic_unit_5
*1072 u_multiplier_NOD_nod_cels_10_Nod_bits_tmp1
*1073 u_multiplier_NOD_nod_cels_11_Nod_bits_02
*1074 u_multiplier_NOD_nod_cels_11_Nod_bits_03
*1075 u_multiplier_NOD_nod_cels_11_Nod_bits_nod_basic_unit_5
*1076 u_multiplier_NOD_nod_cels_11_Nod_bits_tmp1
*1077 u_multiplier_NOD_nod_cels_12_Nod_bits_02
*1078 u_multiplier_NOD_nod_cels_12_Nod_bits_03
*1079 u_multiplier_NOD_nod_cels_12_Nod_bits_nod_basic_unit_5
*1080 u_multiplier_NOD_nod_cels_12_Nod_bits_tmp1
*1081 u_multiplier_NOD_nod_cels_13_Nod_bits_02
*1082 u_multiplier_NOD_nod_cels_13_Nod_bits_03
*1083 u_multiplier_NOD_nod_cels_13_Nod_bits_nod_basic_unit_5
*1084 u_multiplier_NOD_nod_cels_13_Nod_bits_tmp1
*1085 u_multiplier_NOD_nod_cels_14_Nod_bits_02
*1086 u_multiplier_NOD_nod_cels_14_Nod_bits_03
*1087 u_multiplier_NOD_nod_cels_14_Nod_bits_nod_basic_unit_5
*1088 u_multiplier_NOD_nod_cels_14_Nod_bits_tmp1
*1089 u_multiplier_NOD_nod_cels_15_Nod_bits_02
*1090 u_multiplier_NOD_nod_cels_15_Nod_bits_03
*1091 u_multiplier_NOD_nod_cels_15_Nod_bits_nod_basic_unit_5
*1092 u_multiplier_NOD_nod_cels_15_Nod_bits_tmp1
*1093 u_multiplier_NOD_nod_cels_16_Nod_bits_02
*1094 u_multiplier_NOD_nod_cels_16_Nod_bits_03
*1095 u_multiplier_NOD_nod_cels_16_Nod_bits_nod_basic_unit_5
*1096 u_multiplier_NOD_nod_cels_16_Nod_bits_tmp1
*1097 u_multiplier_NOD_nod_cels_17_Nod_bits_02
*1098 u_multiplier_NOD_nod_cels_17_Nod_bits_03
*1099 u_multiplier_NOD_nod_cels_17_Nod_bits_nod_basic_unit_5
*1100 u_multiplier_NOD_nod_cels_17_Nod_bits_tmp1
*1101 u_multiplier_NOD_nod_cels_18_Nod_bits_02
*1102 u_multiplier_NOD_nod_cels_18_Nod_bits_03
*1103 u_multiplier_NOD_nod_cels_18_Nod_bits_nod_basic_unit_5
*1104 u_multiplier_NOD_nod_cels_18_Nod_bits_tmp1
*1105 u_multiplier_NOD_nod_cels_19_Nod_bits_02
*1106 u_multiplier_NOD_nod_cels_19_Nod_bits_03
*1107 u_multiplier_NOD_nod_cels_19_Nod_bits_nod_basic_unit_5
*1108 u_multiplier_NOD_nod_cels_19_Nod_bits_tmp1
*1109 u_multiplier_NOD_nod_cels_20_Nod_bits_02
*1110 u_multiplier_NOD_nod_cels_20_Nod_bits_03
*1111 u_multiplier_NOD_nod_cels_20_Nod_bits_nod_basic_unit_5
*1112 u_multiplier_NOD_nod_cels_20_Nod_bits_tmp1
*1113 u_multiplier_NOD_nod_cels_21_Nod_bits_02
*1114 u_multiplier_NOD_nod_cels_21_Nod_bits_03
*1115 u_multiplier_NOD_nod_cels_21_Nod_bits_nod_basic_unit_5
*1116 u_multiplier_NOD_nod_cels_21_Nod_bits_tmp1
*1117 u_multiplier_NOD_nod_cels_22_Nod_bits_02
*1118 u_multiplier_NOD_nod_cels_22_Nod_bits_03
*1119 u_multiplier_NOD_nod_cels_22_Nod_bits_nod_basic_unit_5
*1120 u_multiplier_NOD_nod_cels_22_Nod_bits_tmp1
*1121 u_multiplier_NOD_nod_cels_23_Nod_bits_02
*1122 u_multiplier_NOD_nod_cels_23_Nod_bits_03
*1123 u_multiplier_NOD_nod_cels_23_Nod_bits_nod_basic_unit_5
*1124 u_multiplier_NOD_nod_cels_23_Nod_bits_tmp1
*1125 u_multiplier_NOD_nod_cels_24_Nod_bits_02
*1126 u_multiplier_NOD_nod_cels_24_Nod_bits_03
*1127 u_multiplier_NOD_nod_cels_24_Nod_bits_nod_basic_unit_5
*1128 u_multiplier_NOD_nod_cels_24_Nod_bits_tmp1
*1129 u_multiplier_NOD_nod_cels_25_Nod_bits_02
*1130 u_multiplier_NOD_nod_cels_25_Nod_bits_03
*1131 u_multiplier_NOD_nod_cels_25_Nod_bits_nod_basic_unit_5
*1132 u_multiplier_NOD_nod_cels_25_Nod_bits_tmp1
*1133 u_multiplier_NOD_nod_cels_26_Nod_bits_02
*1134 u_multiplier_NOD_nod_cels_26_Nod_bits_03
*1135 u_multiplier_NOD_nod_cels_26_Nod_bits_nod_basic_unit_5
*1136 u_multiplier_NOD_nod_cels_26_Nod_bits_tmp1
*1137 u_multiplier_NOD_nod_cels_27_Nod_bits_02
*1138 u_multiplier_NOD_nod_cels_27_Nod_bits_03
*1139 u_multiplier_NOD_nod_cels_27_Nod_bits_nod_basic_unit_5
*1140 u_multiplier_NOD_nod_cels_27_Nod_bits_tmp1
*1141 u_multiplier_NOD_nod_cels_28_Nod_bits_02
*1142 u_multiplier_NOD_nod_cels_28_Nod_bits_03
*1143 u_multiplier_NOD_nod_cels_28_Nod_bits_nod_basic_unit_5
*1144 u_multiplier_NOD_nod_cels_28_Nod_bits_tmp1
*1145 u_multiplier_NOD_nod_cels_29_Nod_bits_02
*1146 u_multiplier_NOD_nod_cels_29_Nod_bits_03
*1147 u_multiplier_NOD_nod_cels_29_Nod_bits_nod_basic_unit_5
*1148 u_multiplier_NOD_nod_cels_29_Nod_bits_tmp1
*1149 u_multiplier_NOD_nod_cels_2_Nod_bits_02
*1150 u_multiplier_NOD_nod_cels_2_Nod_bits_03
*1151 u_multiplier_NOD_nod_cels_2_Nod_bits_nod_basic_unit_5
*1152 u_multiplier_NOD_nod_cels_2_Nod_bits_tmp1
*1153 u_multiplier_NOD_nod_cels_3_Nod_bits_02
*1154 u_multiplier_NOD_nod_cels_3_Nod_bits_03
*1155 u_multiplier_NOD_nod_cels_3_Nod_bits_nod_basic_unit_5
*1156 u_multiplier_NOD_nod_cels_3_Nod_bits_tmp1
*1157 u_multiplier_NOD_nod_cels_4_Nod_bits_02
*1158 u_multiplier_NOD_nod_cels_4_Nod_bits_03
*1159 u_multiplier_NOD_nod_cels_4_Nod_bits_nod_basic_unit_5
*1160 u_multiplier_NOD_nod_cels_4_Nod_bits_tmp1
*1161 u_multiplier_NOD_nod_cels_5_Nod_bits_02
*1162 u_multiplier_NOD_nod_cels_5_Nod_bits_03
*1163 u_multiplier_NOD_nod_cels_5_Nod_bits_nod_basic_unit_5
*1164 u_multiplier_NOD_nod_cels_5_Nod_bits_tmp1
*1165 u_multiplier_NOD_nod_cels_6_Nod_bits_02
*1166 u_multiplier_NOD_nod_cels_6_Nod_bits_03
*1167 u_multiplier_NOD_nod_cels_6_Nod_bits_nod_basic_unit_5
*1168 u_multiplier_NOD_nod_cels_6_Nod_bits_tmp1
*1169 u_multiplier_NOD_nod_cels_7_Nod_bits_02
*1170 u_multiplier_NOD_nod_cels_7_Nod_bits_03
*1171 u_multiplier_NOD_nod_cels_7_Nod_bits_nod_basic_unit_5
*1172 u_multiplier_NOD_nod_cels_7_Nod_bits_tmp1
*1173 u_multiplier_NOD_nod_cels_8_Nod_bits_02
*1174 u_multiplier_NOD_nod_cels_8_Nod_bits_03
*1175 u_multiplier_NOD_nod_cels_8_Nod_bits_nod_basic_unit_5
*1176 u_multiplier_NOD_nod_cels_8_Nod_bits_tmp1
*1177 u_multiplier_NOD_nod_cels_9_Nod_bits_02
*1178 u_multiplier_NOD_nod_cels_9_Nod_bits_03
*1179 u_multiplier_NOD_nod_cels_9_Nod_bits_nod_basic_unit_5
*1180 u_multiplier_NOD_nod_cels_9_Nod_bits_tmp1
*1181 u_multiplier_NOD_t_in[10]
*1182 u_multiplier_NOD_t_in[11]
*1183 u_multiplier_NOD_t_in[12]
*1184 u_multiplier_NOD_t_in[13]
*1185 u_multiplier_NOD_t_in[14]
*1186 u_multiplier_NOD_t_in[15]
*1187 u_multiplier_NOD_t_in[16]
*1188 u_multiplier_NOD_t_in[17]
*1189 u_multiplier_NOD_t_in[18]
*1190 u_multiplier_NOD_t_in[19]
*1191 u_multiplier_NOD_t_in[1]
*1192 u_multiplier_NOD_t_in[20]
*1193 u_multiplier_NOD_t_in[21]
*1194 u_multiplier_NOD_t_in[22]
*1195 u_multiplier_NOD_t_in[23]
*1196 u_multiplier_NOD_t_in[24]
*1197 u_multiplier_NOD_t_in[25]
*1198 u_multiplier_NOD_t_in[26]
*1199 u_multiplier_NOD_t_in[27]
*1200 u_multiplier_NOD_t_in[28]
*1201 u_multiplier_NOD_t_in[2]
*1202 u_multiplier_NOD_t_in[3]
*1203 u_multiplier_NOD_t_in[4]
*1204 u_multiplier_NOD_t_in[5]
*1205 u_multiplier_NOD_t_in[6]
*1206 u_multiplier_NOD_t_in[7]
*1207 u_multiplier_NOD_t_in[8]
*1208 u_multiplier_NOD_t_in[9]
*1209 u_multiplier_NOD_Q1[0]
*1210 u_multiplier_NOD_Q1[10]
*1211 u_multiplier_NOD_Q1[11]
*1212 u_multiplier_NOD_Q1[12]
*1213 u_multiplier_NOD_Q1[13]
*1214 u_multiplier_NOD_Q1[14]
*1215 u_multiplier_NOD_Q1[15]
*1216 u_multiplier_NOD_Q1[16]
*1217 u_multiplier_NOD_Q1[17]
*1218 u_multiplier_NOD_Q1[18]
*1219 u_multiplier_NOD_Q1[19]
*1220 u_multiplier_NOD_Q1[1]
*1221 u_multiplier_NOD_Q1[20]
*1222 u_multiplier_NOD_Q1[21]
*1223 u_multiplier_NOD_Q1[22]
*1224 u_multiplier_NOD_Q1[23]
*1225 u_multiplier_NOD_Q1[24]
*1226 u_multiplier_NOD_Q1[25]
*1227 u_multiplier_NOD_Q1[26]
*1228 u_multiplier_NOD_Q1[27]
*1229 u_multiplier_NOD_Q1[28]
*1230 u_multiplier_NOD_Q1[29]
*1231 u_multiplier_NOD_Q1[2]
*1232 u_multiplier_NOD_Q1[30]
*1233 u_multiplier_NOD_Q1[31]
*1234 u_multiplier_NOD_Q1[3]
*1235 u_multiplier_NOD_Q1[4]
*1236 u_multiplier_NOD_Q1[5]
*1237 u_multiplier_NOD_Q1[6]
*1238 u_multiplier_NOD_Q1[7]
*1239 u_multiplier_NOD_Q1[8]
*1240 u_multiplier_NOD_Q1[9]
*1241 u_multiplier_PE_code0__31_
*1242 u_multiplier_PE_code0__32_
*1243 u_multiplier_PE_code0__33_
*1244 u_multiplier_PE_code0__34_
*1245 u_multiplier_PE_code0__35_
*1246 u_multiplier_PE_code1__31_
*1247 u_multiplier_PE_code1__32_
*1248 u_multiplier_PE_code1__33_
*1249 u_multiplier_PE_code1__34_
*1250 u_multiplier_PE_code1__35_
*1251 u_multiplier_PE_code2__31_
*1252 u_multiplier_PE_code2__32_
*1253 u_multiplier_PE_code2__33_
*1254 u_multiplier_PE_code2__34_
*1255 u_multiplier_PE_code2__35_
*1256 u_multiplier_PE_code3__31_
*1257 u_multiplier_PE_code3__32_
*1258 u_multiplier_PE_code3__33_
*1259 u_multiplier_PE_code3__34_
*1260 u_multiplier_PE_code3__35_
*1261 u_multiplier_PE_code4__31_
*1262 u_multiplier_PE_code4__32_
*1263 u_multiplier_PE_code4__33_
*1264 u_multiplier_PE_code4__34_
*1265 u_multiplier_PE_code4__35_
*1266 u_multiplier_PEx_code0__31_
*1267 u_multiplier_PEx_code0__32_
*1268 u_multiplier_PEx_code0__33_
*1269 u_multiplier_PEx_code0__34_
*1270 u_multiplier_PEx_code0__35_
*1271 u_multiplier_PEx_code1__31_
*1272 u_multiplier_PEx_code1__32_
*1273 u_multiplier_PEx_code1__33_
*1274 u_multiplier_PEx_code1__34_
*1275 u_multiplier_PEx_code1__35_
*1276 u_multiplier_PEx_code2__31_
*1277 u_multiplier_PEx_code2__32_
*1278 u_multiplier_PEx_code2__33_
*1279 u_multiplier_PEx_code2__34_
*1280 u_multiplier_PEx_code2__35_
*1281 u_multiplier_PEx_code3__31_
*1282 u_multiplier_PEx_code3__32_
*1283 u_multiplier_PEx_code3__33_
*1284 u_multiplier_PEx_code3__34_
*1285 u_multiplier_PEx_code3__35_
*1286 u_multiplier_PEx_code4__31_
*1287 u_multiplier_PEx_code4__32_
*1288 u_multiplier_PEx_code4__33_
*1289 u_multiplier_PEx_code4__34_
*1290 u_multiplier_PEx_code4__35_
*1291 u_multiplier_PEy_code0__31_
*1292 u_multiplier_PEy_code0__32_
*1293 u_multiplier_PEy_code0__33_
*1294 u_multiplier_PEy_code0__34_
*1295 u_multiplier_PEy_code0__35_
*1296 u_multiplier_PEy_code1__31_
*1297 u_multiplier_PEy_code1__32_
*1298 u_multiplier_PEy_code1__33_
*1299 u_multiplier_PEy_code1__34_
*1300 u_multiplier_PEy_code1__35_
*1301 u_multiplier_PEy_code2__31_
*1302 u_multiplier_PEy_code2__32_
*1303 u_multiplier_PEy_code2__33_
*1304 u_multiplier_PEy_code2__34_
*1305 u_multiplier_PEy_code2__35_
*1306 u_multiplier_PEy_code3__31_
*1307 u_multiplier_PEy_code3__32_
*1308 u_multiplier_PEy_code3__33_
*1309 u_multiplier_PEy_code3__34_
*1310 u_multiplier_PEy_code3__35_
*1311 u_multiplier_PEy_code4__31_
*1312 u_multiplier_PEy_code4__32_
*1313 u_multiplier_PEy_code4__33_
*1314 u_multiplier_PEy_code4__34_
*1315 u_multiplier_PEy_code4__35_
*1316 u_multiplier__1830_
*1317 u_multiplier__1831_
*1318 u_multiplier__1832_
*1319 u_multiplier__1833_
*1320 u_multiplier__1834_
*1321 u_multiplier__1835_
*1322 u_multiplier__1836_
*1323 u_multiplier__1837_
*1324 u_multiplier__1838_
*1325 u_multiplier__1839_
*1326 u_multiplier__1840_
*1327 u_multiplier__1841_
*1328 u_multiplier__1842_
*1329 u_multiplier__1843_
*1330 u_multiplier__1844_
*1331 u_multiplier__1845_
*1332 u_multiplier__1846_
*1333 u_multiplier__1847_
*1334 u_multiplier__1848_
*1335 u_multiplier__1849_
*1336 u_multiplier__1850_
*1337 u_multiplier__1851_
*1338 u_multiplier__1852_
*1339 u_multiplier__1853_
*1340 u_multiplier__1854_
*1341 u_multiplier__1855_
*1342 u_multiplier__1856_
*1343 u_multiplier__1857_
*1344 u_multiplier__1858_
*1345 u_multiplier__1859_
*1346 u_multiplier__1860_
*1347 u_multiplier__1861_
*1348 u_multiplier__1862_
*1349 u_multiplier__1863_
*1350 u_multiplier__1864_
*1351 u_multiplier__1865_
*1352 u_multiplier__1866_
*1353 u_multiplier__2003_