*SPEF "ieee 1481-1999"
*DESIGN "sram_multiplier_system"
*DATE "12:10:33 Wednesday October 01, 2025"
*VENDOR "The OpenROAD Project"
*PROGRAM "OpenROAD"
*VERSION "v2.0-17598-ga008522d8"
*DESIGN_FLOW "NAME_SCOPE LOCAL" "PIN_CAP NONE"
*DIVIDER /
*DELIMITER :
*BUS_DELIMITER []
*T_UNIT 1 NS
*C_UNIT 1 PF
*R_UNIT 1 OHM
*L_UNIT 1 HENRY

*NAME_MAP
*1 clk
*2 data_in[0]
*3 data_in[1]
*4 data_in[2]
*5 data_in[3]
*6 data_in[4]
*7 data_in[5]
*8 data_in[6]
*9 data_in[7]
*10 data_out[0]
*11 data_out[10]
*12 data_out[11]
*13 data_out[12]
*14 data_out[13]
*15 data_out[14]
*16 data_out[15]
*17 data_out[1]
*18 data_out[2]
*19 data_out[3]
*20 data_out[4]
*21 data_out[5]
*22 data_out[6]
*23 data_out[7]
*24 data_out[8]
*25 data_out[9]
*26 curr_state[1]
*27 init_enable
*28 pe_ce
*29 rst_n
*30 valid_reg_out
*33 _006_
*34 _007_
*35 _008_
*36 _009_
*37 _010_
*38 _011_
*39 _012_
*40 _013_
*41 _014_
*42 _015_
*43 _016_
*44 _017_
*45 _018_
*46 _019_
*47 _020_
*48 _021_
*49 _022_
*50 _023_
*51 _024_
*52 _025_
*53 _026_
*54 _027_
*55 _028_
*56 _029_
*57 _030_
*58 _031_
*59 _032_
*60 _033_
*61 _034_
*62 _035_
*63 _036_
*64 _037_
*65 _038_
*66 _039_
*67 _040_
*68 _041_
*69 _042_
*70 _043_
*71 _044_
*72 _045_
*73 _046_
*74 _047_
*75 _048_
*76 _049_
*77 _050_
*78 _051_
*79 _081_
*80 _082_
*81 _083_
*82 _084_
*83 _085_
*84 _086_
*85 _087_
*86 _088_
*87 _089_
*88 _090_
*89 _091_
*90 _092_
*91 _093_
*92 _094_
*93 _095_
*94 _096_
*95 _097_
*96 _098_
*97 _099_
*98 _100_
*99 _101_
*100 _102_
*101 _103_
*102 _104_
*103 _105_
*104 _106_
*105 _107_
*106 _108_
*107 _109_
*108 _110_
*109 _111_
*110 _112_
*111 _113_
*112 _222_
*113 _223_
*114 _224_
*115 _225_
*116 _226_
*117 _227_
*118 _228_
*119 _229_
*120 _230_
*121 _231_
*122 _232_
*123 _233_
*124 _234_
*125 _235_
*126 _236_
*127 _237_
*128 _238_
*129 _239_
*130 _240_
*131 _241_
*132 _242_
*133 _243_
*134 _244_
*135 _245_
*136 _246_
*137 _247_
*138 _248_
*139 _249_
*140 _250_
*141 _251_
*142 _252_
*143 _253_
*144 _254_
*145 _255_
*146 _256_
*147 _257_
*148 _258_
*149 _259_
*150 _260_
*151 _261_
*152 _262_
*153 _263_
*154 _264_
*155 _265_
*156 addr_ptr[0]
*157 addr_ptr[1]
*158 addr_ptr[2]
*159 addr_ptr[3]
*160 clknet_0_clk
*161 clknet_2_0__leaf_clk
*162 clknet_2_1__leaf_clk
*163 clknet_2_2__leaf_clk
*164 clknet_2_3__leaf_clk
*165 curr_state[0]
*166 curr_state[2]
*167 data_in_reg[0]
*168 data_in_reg[1]
*169 data_in_reg[2]
*170 data_in_reg[3]
*171 data_in_reg[4]
*172 data_in_reg[5]
*173 data_in_reg[6]
*174 data_in_reg[7]
*175 init_count[0]
*176 init_count[1]
*177 init_count[2]
*178 init_count[3]
*179 net1
*180 net10
*181 net100
*182 net101
*183 net102
*184 net103
*185 net104
*186 net105
*187 net106
*188 net107
*189 net108
*190 net109
*191 net11
*192 net110
*193 net12
*194 net13
*195 net14
*196 net15
*197 net16
*198 net17
*199 net18
*200 net19
*201 net2
*202 net20
*203 net21
*204 net22
*205 net23
*206 net24
*207 net25
*208 net26
*209 net27
*210 net28
*211 net29
*212 net3
*213 net30
*214 net31
*215 net32
*216 net33
*217 net34
*218 net35
*219 net36
*220 net37
*221 net38
*222 net39
*223 net4
*224 net40
*225 net41
*226 net42
*227 net43
*228 net44
*229 net45
*230 net46
*231 net47
*232 net48
*233 net49
*234 net5
*235 net50
*236 net51
*237 net52
*238 net53
*239 net54
*240 net55
*241 net56
*242 net57
*243 net58
*244 net59
*245 net6
*246 net60
*247 net61
*248 net62
*249 net63
*250 net64
*251 net65
*252 net66
*253 net67
*254 net68
*255 net69
*256 net7
*257 net70
*258 net71
*259 net72
*260 net73
*261 net74
*262 net75
*263 net76
*264 net77
*265 net78
*266 net79
*267 net8
*268 net80
*269 net81
*270 net82
*271 net83
*272 net84
*273 net85
*274 net86
*275 net87
*276 net88
*277 net89
*278 net9
*279 net90
*280 net91
*281 net92
*282 net93
*283 net94
*284 net95
*285 net96
*286 net97
*287 net98
*288 net99
*289 product[0]
*290 product[10]
*291 product[11]
*292 product[12]
*293 product[13]
*294 product[14]
*295 product[15]
*296 product[1]
*297 product[2]
*298 product[3]
*299 product[4]
*300 product[5]
*301 product[6]
*302 product[7]
*303 product[8]
*304 product[9]
*305 sram_rdata[0]
*306 sram_rdata[1]
*307 sram_rdata[2]
*308 sram_rdata[3]
*309 sram_rdata[4]
*310 sram_rdata[5]
*311 sram_rdata[6]
*312 sram_rdata[7]
*313 sram_rdata_reg[0]
*314 sram_rdata_reg[1]
*315 sram_rdata_reg[2]
*316 sram_rdata_reg[3]
*317 sram_rdata_reg[4]
*318 sram_rdata_reg[5]
*319 sram_rdata_reg[6]
*320 sram_rdata_reg[7]
*321 u_multiplier_STAGE1_ACCI1_pp_5__06_
*322 u_multiplier_STAGE1_ACCI1_pp_5__07_
*323 u_multiplier_STAGE1_ACCI1_pp_5__08_
*324 u_multiplier_STAGE1_ACCI1_pp_5__09_
*325 u_multiplier_STAGE1_ACCI1_pp_5__10_
*326 u_multiplier_STAGE1_ACCI1_pp_5__11_
*327 u_multiplier_STAGE1_ACCI1_pp_6__06_
*328 u_multiplier_STAGE1_ACCI1_pp_6__07_
*329 u_multiplier_STAGE1_ACCI1_pp_6__08_
*330 u_multiplier_STAGE1_ACCI1_pp_6__09_
*331 u_multiplier_STAGE1_ACCI1_pp_6__10_
*332 u_multiplier_STAGE1_ACCI1_pp_6__11_
*333 u_multiplier_STAGE1_ACCI1_pp_7_1__06_
*334 u_multiplier_STAGE1_ACCI1_pp_7_1__07_
*335 u_multiplier_STAGE1_ACCI1_pp_7_1__08_
*336 u_multiplier_STAGE1_ACCI1_pp_7_1__09_
*337 u_multiplier_STAGE1_ACCI1_pp_7_1__10_
*338 u_multiplier_STAGE1_ACCI1_pp_7_1__11_
*339 u_multiplier_STAGE1_ACCI1_pp_7_2__06_
*340 u_multiplier_STAGE1_ACCI1_pp_7_2__07_
*341 u_multiplier_STAGE1_ACCI1_pp_7_2__08_
*342 u_multiplier_STAGE1_ACCI1_pp_7_2__09_
*343 u_multiplier_STAGE1_ACCI1_pp_7_2__10_
*344 u_multiplier_STAGE1_ACCI1_pp_7_2__11_
*345 u_multiplier_STAGE1_Exact_42_pp_10__08_
*346 u_multiplier_STAGE1_Exact_42_pp_10__09_
*347 u_multiplier_STAGE1_Exact_42_pp_10__10_
*348 u_multiplier_STAGE1_Exact_42_pp_10__11_
*349 u_multiplier_STAGE1_Exact_42_pp_10__12_
*350 u_multiplier_STAGE1_Exact_42_pp_10__13_
*351 u_multiplier_STAGE1_Exact_42_pp_10__14_
*352 u_multiplier_STAGE1_Exact_42_pp_8__08_
*353 u_multiplier_STAGE1_Exact_42_pp_8__09_
*354 u_multiplier_STAGE1_Exact_42_pp_8__10_
*355 u_multiplier_STAGE1_Exact_42_pp_8__11_
*356 u_multiplier_STAGE1_Exact_42_pp_8__12_
*357 u_multiplier_STAGE1_Exact_42_pp_8__13_
*358 u_multiplier_STAGE1_Exact_42_pp_8__14_
*359 u_multiplier_STAGE1_Exact_42_pp_9__08_
*360 u_multiplier_STAGE1_Exact_42_pp_9__09_
*361 u_multiplier_STAGE1_Exact_42_pp_9__10_
*362 u_multiplier_STAGE1_Exact_42_pp_9__11_
*363 u_multiplier_STAGE1_Exact_42_pp_9__12_
*364 u_multiplier_STAGE1_Exact_42_pp_9__13_
*365 u_multiplier_STAGE1_Exact_42_pp_9__14_
*366 u_multiplier_STAGE1_Full_adder_pp_11__05_
*367 u_multiplier_STAGE1_Full_adder_pp_11__06_
*368 u_multiplier_STAGE1_Full_adder_pp_11__07_
*369 u_multiplier_STAGE1_Full_adder_pp_11__08_
*370 u_multiplier_STAGE1_Full_adder_pp_8__05_
*371 u_multiplier_STAGE1_Full_adder_pp_8__06_
*372 u_multiplier_STAGE1_Full_adder_pp_8__07_
*373 u_multiplier_STAGE1_Full_adder_pp_8__08_
*374 u_multiplier_STAGE1__016_
*375 u_multiplier_STAGE1__017_
*376 u_multiplier_STAGE1__018_
*377 u_multiplier_STAGE1__019_
*378 u_multiplier_STAGE1__020_
*379 u_multiplier_STAGE1__021_
*380 u_multiplier_STAGE1__022_
*381 u_multiplier_STAGE1__023_
*382 u_multiplier_STAGE1__024_
*383 u_multiplier_STAGE1__025_
*384 u_multiplier_STAGE1__026_
*385 u_multiplier_STAGE1__027_
*386 u_multiplier_STAGE1__028_
*387 u_multiplier_STAGE1__029_
*388 u_multiplier_STAGE1__030_
*389 u_multiplier_STAGE1__031_
*390 u_multiplier_STAGE1__032_
*391 u_multiplier_STAGE1__033_
*392 u_multiplier_STAGE1__034_
*393 u_multiplier_STAGE1__035_
*394 u_multiplier_STAGE1__036_
*395 u_multiplier_STAGE1__037_
*396 u_multiplier_STAGE1__038_
*397 u_multiplier_STAGE1__039_
*398 u_multiplier_STAGE1__040_
*399 u_multiplier_STAGE1__041_
*400 u_multiplier_STAGE1__042_
*401 u_multiplier_STAGE1__043_
*402 u_multiplier_STAGE1__044_
*403 u_multiplier_STAGE1__045_
*404 u_multiplier_STAGE1__046_
*405 u_multiplier_STAGE1__047_
*406 u_multiplier_STAGE1__048_
*407 u_multiplier_STAGE1__049_
*408 u_multiplier_STAGE1__050_
*409 u_multiplier_STAGE1__051_
*410 u_multiplier_STAGE1__052_
*411 u_multiplier_STAGE1__053_
*412 u_multiplier_STAGE1__054_
*413 u_multiplier_STAGE1_pp_10_exa_c2
*414 u_multiplier_STAGE1_pp_8_exa_c22
*415 u_multiplier_STAGE1_pp_9_exa_c22
*416 u_multiplier_STAGE2_ACCI1_pp_3__06_
*417 u_multiplier_STAGE2_ACCI1_pp_3__07_
*418 u_multiplier_STAGE2_ACCI1_pp_3__08_
*419 u_multiplier_STAGE2_ACCI1_pp_3__09_
*420 u_multiplier_STAGE2_ACCI1_pp_3__10_
*421 u_multiplier_STAGE2_ACCI1_pp_3__11_
*422 u_multiplier_STAGE2_ACCI1_pp_4__06_
*423 u_multiplier_STAGE2_ACCI1_pp_4__07_
*424 u_multiplier_STAGE2_ACCI1_pp_4__08_
*425 u_multiplier_STAGE2_ACCI1_pp_4__09_
*426 u_multiplier_STAGE2_ACCI1_pp_4__10_
*427 u_multiplier_STAGE2_ACCI1_pp_4__11_
*428 u_multiplier_STAGE2_ACCI1_pp_5__06_
*429 u_multiplier_STAGE2_ACCI1_pp_5__07_
*430 u_multiplier_STAGE2_ACCI1_pp_5__08_
*431 u_multiplier_STAGE2_ACCI1_pp_5__09_
*432 u_multiplier_STAGE2_ACCI1_pp_5__10_
*433 u_multiplier_STAGE2_ACCI1_pp_5__11_
*434 u_multiplier_STAGE2_ACCI1_pp_6__06_
*435 u_multiplier_STAGE2_ACCI1_pp_6__07_
*436 u_multiplier_STAGE2_ACCI1_pp_6__08_
*437 u_multiplier_STAGE2_ACCI1_pp_6__09_
*438 u_multiplier_STAGE2_ACCI1_pp_6__10_
*439 u_multiplier_STAGE2_ACCI1_pp_6__11_
*440 u_multiplier_STAGE2_ACCI1_pp_7__06_
*441 u_multiplier_STAGE2_ACCI1_pp_7__07_
*442 u_multiplier_STAGE2_ACCI1_pp_7__08_
*443 u_multiplier_STAGE2_ACCI1_pp_7__09_
*444 u_multiplier_STAGE2_ACCI1_pp_7__10_
*445 u_multiplier_STAGE2_ACCI1_pp_7__11_
*446 u_multiplier_STAGE2_Exact_42_pp_10__08_
*447 u_multiplier_STAGE2_Exact_42_pp_10__09_
*448 u_multiplier_STAGE2_Exact_42_pp_10__10_
*449 u_multiplier_STAGE2_Exact_42_pp_10__11_
*450 u_multiplier_STAGE2_Exact_42_pp_10__12_
*451 u_multiplier_STAGE2_Exact_42_pp_10__13_
*452 u_multiplier_STAGE2_Exact_42_pp_10__14_
*453 u_multiplier_STAGE2_Exact_42_pp_11__08_
*454 u_multiplier_STAGE2_Exact_42_pp_11__09_
*455 u_multiplier_STAGE2_Exact_42_pp_11__10_
*456 u_multiplier_STAGE2_Exact_42_pp_11__11_
*457 u_multiplier_STAGE2_Exact_42_pp_11__12_
*458 u_multiplier_STAGE2_Exact_42_pp_11__13_
*459 u_multiplier_STAGE2_Exact_42_pp_11__14_
*460 u_multiplier_STAGE2_Exact_42_pp_12__08_
*461 u_multiplier_STAGE2_Exact_42_pp_12__09_
*462 u_multiplier_STAGE2_Exact_42_pp_12__10_
*463 u_multiplier_STAGE2_Exact_42_pp_12__11_
*464 u_multiplier_STAGE2_Exact_42_pp_12__12_
*465 u_multiplier_STAGE2_Exact_42_pp_12__13_
*466 u_multiplier_STAGE2_Exact_42_pp_12__14_
*467 u_multiplier_STAGE2_Exact_42_pp_8__08_
*468 u_multiplier_STAGE2_Exact_42_pp_8__09_
*469 u_multiplier_STAGE2_Exact_42_pp_8__10_
*470 u_multiplier_STAGE2_Exact_42_pp_8__11_
*471 u_multiplier_STAGE2_Exact_42_pp_8__12_
*472 u_multiplier_STAGE2_Exact_42_pp_8__13_
*473 u_multiplier_STAGE2_Exact_42_pp_8__14_
*474 u_multiplier_STAGE2_Exact_42_pp_9__08_
*475 u_multiplier_STAGE2_Exact_42_pp_9__09_
*476 u_multiplier_STAGE2_Exact_42_pp_9__10_
*477 u_multiplier_STAGE2_Exact_42_pp_9__11_
*478 u_multiplier_STAGE2_Exact_42_pp_9__12_
*479 u_multiplier_STAGE2_Exact_42_pp_9__13_
*480 u_multiplier_STAGE2_Exact_42_pp_9__14_
*481 u_multiplier_STAGE2_Final_add_Cout
*482 u_multiplier_STAGE2_Final_add_c1
*483 u_multiplier_STAGE2_Final_add_c2
*484 u_multiplier_STAGE2_Final_add_c3
*485 u_multiplier_STAGE2_Final_add_cla1__14_
*486 u_multiplier_STAGE2_Final_add_cla1__15_
*487 u_multiplier_STAGE2_Final_add_cla1__16_
*488 u_multiplier_STAGE2_Final_add_cla1__17_
*489 u_multiplier_STAGE2_Final_add_cla1__18_
*490 u_multiplier_STAGE2_Final_add_cla1__19_
*491 u_multiplier_STAGE2_Final_add_cla1__20_
*492 u_multiplier_STAGE2_Final_add_cla1__21_
*493 u_multiplier_STAGE2_Final_add_cla1__22_
*494 u_multiplier_STAGE2_Final_add_cla1__23_
*495 u_multiplier_STAGE2_Final_add_cla1__24_
*496 u_multiplier_STAGE2_Final_add_cla1__25_
*497 u_multiplier_STAGE2_Final_add_cla1__26_
*498 u_multiplier_STAGE2_Final_add_cla1__27_
*499 u_multiplier_STAGE2_Final_add_cla1__28_
*500 u_multiplier_STAGE2_Final_add_cla2__14_
*501 u_multiplier_STAGE2_Final_add_cla2__15_
*502 u_multiplier_STAGE2_Final_add_cla2__16_
*503 u_multiplier_STAGE2_Final_add_cla2__17_
*504 u_multiplier_STAGE2_Final_add_cla2__18_
*505 u_multiplier_STAGE2_Final_add_cla2__19_
*506 u_multiplier_STAGE2_Final_add_cla2__20_
*507 u_multiplier_STAGE2_Final_add_cla2__21_
*508 u_multiplier_STAGE2_Final_add_cla2__22_
*509 u_multiplier_STAGE2_Final_add_cla2__23_
*510 u_multiplier_STAGE2_Final_add_cla2__24_
*511 u_multiplier_STAGE2_Final_add_cla2__25_
*512 u_multiplier_STAGE2_Final_add_cla2__26_
*513 u_multiplier_STAGE2_Final_add_cla2__27_
*514 u_multiplier_STAGE2_Final_add_cla2__28_
*515 u_multiplier_STAGE2_Final_add_cla3__14_
*516 u_multiplier_STAGE2_Final_add_cla3__15_
*517 u_multiplier_STAGE2_Final_add_cla3__16_
*518 u_multiplier_STAGE2_Final_add_cla3__17_
*519 u_multiplier_STAGE2_Final_add_cla3__18_
*520 u_multiplier_STAGE2_Final_add_cla3__19_
*521 u_multiplier_STAGE2_Final_add_cla3__20_
*522 u_multiplier_STAGE2_Final_add_cla3__21_
*523 u_multiplier_STAGE2_Final_add_cla3__22_
*524 u_multiplier_STAGE2_Final_add_cla3__23_
*525 u_multiplier_STAGE2_Final_add_cla3__24_
*526 u_multiplier_STAGE2_Final_add_cla3__25_
*527 u_multiplier_STAGE2_Final_add_cla3__26_
*528 u_multiplier_STAGE2_Final_add_cla3__27_
*529 u_multiplier_STAGE2_Final_add_cla3__28_
*530 u_multiplier_STAGE2_Final_add_cla4__14_
*531 u_multiplier_STAGE2_Final_add_cla4__15_
*532 u_multiplier_STAGE2_Final_add_cla4__16_
*533 u_multiplier_STAGE2_Final_add_cla4__17_
*534 u_multiplier_STAGE2_Final_add_cla4__18_
*535 u_multiplier_STAGE2_Final_add_cla4__19_
*536 u_multiplier_STAGE2_Final_add_cla4__20_
*537 u_multiplier_STAGE2_Final_add_cla4__21_
*538 u_multiplier_STAGE2_Final_add_cla4__22_
*539 u_multiplier_STAGE2_Final_add_cla4__23_
*540 u_multiplier_STAGE2_Final_add_cla4__24_
*541 u_multiplier_STAGE2_Final_add_cla4__25_
*542 u_multiplier_STAGE2_Final_add_cla4__26_
*543 u_multiplier_STAGE2_Final_add_cla4__27_
*544 u_multiplier_STAGE2_Final_add_cla4__28_
*545 u_multiplier_STAGE2_Full_adder_pp_13__05_
*546 u_multiplier_STAGE2_Full_adder_pp_13__06_
*547 u_multiplier_STAGE2_Full_adder_pp_13__07_
*548 u_multiplier_STAGE2_Full_adder_pp_13__08_
*549 u_multiplier_STAGE2_pp_10_exa_c1
*550 u_multiplier_STAGE2_pp_10_exa_c2
*551 u_multiplier_STAGE2_pp_10_exa_s
*552 u_multiplier_STAGE2_pp_11_exa_c1
*553 u_multiplier_STAGE2_pp_11_exa_c2
*554 u_multiplier_STAGE2_pp_11_exa_s
*555 u_multiplier_STAGE2_pp_12_exa_c1
*556 u_multiplier_STAGE2_pp_12_exa_c2
*557 u_multiplier_STAGE2_pp_12_exa_s
*558 u_multiplier_STAGE2_pp_13_exa_c
*559 u_multiplier_STAGE2_pp_13_exa_s
*560 u_multiplier_STAGE2_pp_2_exa_c
*561 u_multiplier_STAGE2_pp_2_exa_s
*562 u_multiplier_STAGE2_pp_3_pro_c
*563 u_multiplier_STAGE2_pp_3_pro_s
*564 u_multiplier_STAGE2_pp_4_pro_c
*565 u_multiplier_STAGE2_pp_4_pro_s
*566 u_multiplier_STAGE2_pp_5_pro_c
*567 u_multiplier_STAGE2_pp_5_pro_s
*568 u_multiplier_STAGE2_pp_6_pro_c
*569 u_multiplier_STAGE2_pp_6_pro_s
*570 u_multiplier_STAGE2_pp_7_pro_c
*571 u_multiplier_STAGE2_pp_7_pro_s
*572 u_multiplier_STAGE2_pp_8_exa_c1
*573 u_multiplier_STAGE2_pp_8_exa_c2
*574 u_multiplier_STAGE2_pp_8_exa_s
*575 u_multiplier_STAGE2_pp_9_exa_c1
*576 u_multiplier_STAGE2_pp_9_exa_c2
*577 u_multiplier_STAGE2_pp_9_exa_s
*578 u_multiplier_pp_0
*579 u_multiplier_pp_10[0]
*580 u_multiplier_pp_10[1]
*581 u_multiplier_pp_10[2]
*582 u_multiplier_pp_10[3]
*583 u_multiplier_pp_11[0]
*584 u_multiplier_pp_11[1]
*585 u_multiplier_pp_11[2]
*586 u_multiplier_pp_11[3]
*587 u_multiplier_pp_12[0]
*588 u_multiplier_pp_12[1]
*589 u_multiplier_pp_12[2]
*590 u_multiplier_pp_12[3]
*591 u_multiplier_pp_13[0]
*592 u_multiplier_pp_13[1]
*593 u_multiplier_pp_14
*594 u_multiplier_pp_1[0]
*595 u_multiplier_pp_1[1]
*596 u_multiplier_pp_2[0]
*597 u_multiplier_pp_2[1]
*598 u_multiplier_pp_2[2]
*599 u_multiplier_pp_3[0]
*600 u_multiplier_pp_3[1]
*601 u_multiplier_pp_3[2]
*602 u_multiplier_pp_3[3]
*603 u_multiplier_pp_4[0]
*604 u_multiplier_pp_4[1]
*605 u_multiplier_pp_4[2]
*606 u_multiplier_pp_4[3]
*607 u_multiplier_pp_5[0]
*608 u_multiplier_pp_5[1]
*609 u_multiplier_pp_5[2]
*610 u_multiplier_pp_5[3]
*611 u_multiplier_pp_6[0]
*612 u_multiplier_pp_6[1]
*613 u_multiplier_pp_6[2]
*614 u_multiplier_pp_6[3]
*615 u_multiplier_pp_7[0]
*616 u_multiplier_pp_7[1]
*617 u_multiplier_pp_7[2]
*618 u_multiplier_pp_7[3]
*619 u_multiplier_pp_8[0]
*620 u_multiplier_pp_8[1]
*621 u_multiplier_pp_8[2]
*622 u_multiplier_pp_8[3]
*623 u_multiplier_pp_9[0]
*624 u_multiplier_pp_9[1]
*625 u_multiplier_pp_9[2]
*626 u_multiplier_pp_9[3]
*627 FILLER_0_1
*628 FILLER_0_103
*629 FILLER_0_135
*630 FILLER_0_151
*631 FILLER_0_159
*632 FILLER_0_161
*633 FILLER_0_165
*634 FILLER_0_197
*635 FILLER_0_229
*636 FILLER_0_245
*637 FILLER_0_253
*638 FILLER_0_255
*639 FILLER_0_259
*640 FILLER_0_275
*641 FILLER_0_281
*642 FILLER_0_285
*643 FILLER_0_287
*644 FILLER_0_292
*645 FILLER_0_324
*646 FILLER_0_340
*647 FILLER_0_344
*648 FILLER_0_349
*649 FILLER_0_381
*650 FILLER_0_41
*651 FILLER_0_413
*652 FILLER_0_429
*653 FILLER_0_437
*654 FILLER_0_442
*655 FILLER_0_474
*656 FILLER_0_506
*657 FILLER_0_514
*658 FILLER_0_518
*659 FILLER_0_520
*660 FILLER_0_524
*661 FILLER_0_532
*662 FILLER_0_537
*663 FILLER_0_541
*664 FILLER_0_543
*665 FILLER_0_547
*666 FILLER_0_57
*667 FILLER_0_579
*668 FILLER_0_611
*669 FILLER_0_627
*670 FILLER_0_632
*671 FILLER_0_639
*672 FILLER_0_647
*673 FILLER_0_65
*674 FILLER_0_67
*675 FILLER_0_71
*676 FILLER_0_9
*677 FILLER_10_1
*678 FILLER_10_113
*679 FILLER_10_117
*680 FILLER_10_33
*681 FILLER_10_516
*682 FILLER_10_532
*683 FILLER_10_537
*684 FILLER_10_545
*685 FILLER_10_550
*686 FILLER_10_561
*687 FILLER_10_568
*688 FILLER_10_572
*689 FILLER_10_577
*690 FILLER_10_585
*691 FILLER_10_587
*692 FILLER_10_592
*693 FILLER_10_605
*694 FILLER_10_613
*695 FILLER_10_622
*696 FILLER_10_631
*697 FILLER_10_647
*698 FILLER_10_65
*699 FILLER_10_97
*700 FILLER_11_1
*701 FILLER_11_101
*702 FILLER_11_107
*703 FILLER_11_114
*704 FILLER_11_33
*705 FILLER_11_516
*706 FILLER_11_524
*707 FILLER_11_532
*708 FILLER_11_545
*709 FILLER_11_561
*710 FILLER_11_569
*711 FILLER_11_574
*712 FILLER_11_582
*713 FILLER_11_588
*714 FILLER_11_596
*715 FILLER_11_600
*716 FILLER_11_602
*717 FILLER_11_607
*718 FILLER_11_614
*719 FILLER_11_627
*720 FILLER_11_633
*721 FILLER_11_649
*722 FILLER_11_65
*723 FILLER_11_97
*724 FILLER_12_1
*725 FILLER_12_114
*726 FILLER_12_33
*727 FILLER_12_516
*728 FILLER_12_524
*729 FILLER_12_530
*730 FILLER_12_540
*731 FILLER_12_548
*732 FILLER_12_555
*733 FILLER_12_563
*734 FILLER_12_571
*735 FILLER_12_575
*736 FILLER_12_581
*737 FILLER_12_588
*738 FILLER_12_601
*739 FILLER_12_618
*740 FILLER_12_639
*741 FILLER_12_647
*742 FILLER_12_65
*743 FILLER_12_81
*744 FILLER_12_89
*745 FILLER_12_93
*746 FILLER_13_1
*747 FILLER_13_113
*748 FILLER_13_117
*749 FILLER_13_33
*750 FILLER_13_516
*751 FILLER_13_520
*752 FILLER_13_526
*753 FILLER_13_539
*754 FILLER_13_552
*755 FILLER_13_562
*756 FILLER_13_570
*757 FILLER_13_578
*758 FILLER_13_599
*759 FILLER_13_605
*760 FILLER_13_621
*761 FILLER_13_625
*762 FILLER_13_633
*763 FILLER_13_640
*764 FILLER_13_648
*765 FILLER_13_65
*766 FILLER_13_650
*767 FILLER_13_97
*768 FILLER_14_1
*769 FILLER_14_113
*770 FILLER_14_117
*771 FILLER_14_33
*772 FILLER_14_516
*773 FILLER_14_524
*774 FILLER_14_528
*775 FILLER_14_537
*776 FILLER_14_545
*777 FILLER_14_567
*778 FILLER_14_575
*779 FILLER_14_583
*780 FILLER_14_591
*781 FILLER_14_599
*782 FILLER_14_618
*783 FILLER_14_625
*784 FILLER_14_633
*785 FILLER_14_637
*786 FILLER_14_641
*787 FILLER_14_649
*788 FILLER_14_65
*789 FILLER_14_97
*790 FILLER_15_1
*791 FILLER_15_113
*792 FILLER_15_117
*793 FILLER_15_33
*794 FILLER_15_516
*795 FILLER_15_524
*796 FILLER_15_528
*797 FILLER_15_530
*798 FILLER_15_534
*799 FILLER_15_541
*800 FILLER_15_557
*801 FILLER_15_565
*802 FILLER_15_571
*803 FILLER_15_587
*804 FILLER_15_591
*805 FILLER_15_596
*806 FILLER_15_607
*807 FILLER_15_614
*808 FILLER_15_622
*809 FILLER_15_632
*810 FILLER_15_639
*811 FILLER_15_643
*812 FILLER_15_647
*813 FILLER_15_65
*814 FILLER_15_97
*815 FILLER_16_1
*816 FILLER_16_113
*817 FILLER_16_117
*818 FILLER_16_33
*819 FILLER_16_516
*820 FILLER_16_524
*821 FILLER_16_528
*822 FILLER_16_536
*823 FILLER_16_544
*824 FILLER_16_556
*825 FILLER_16_566
*826 FILLER_16_582
*827 FILLER_16_587
*828 FILLER_16_595
*829 FILLER_16_599
*830 FILLER_16_610
*831 FILLER_16_627
*832 FILLER_16_637
*833 FILLER_16_647
*834 FILLER_16_65
*835 FILLER_16_97
*836 FILLER_17_1
*837 FILLER_17_113
*838 FILLER_17_117
*839 FILLER_17_33
*840 FILLER_17_516
*841 FILLER_17_524
*842 FILLER_17_528
*843 FILLER_17_538
*844 FILLER_17_546
*845 FILLER_17_554
*846 FILLER_17_558
*847 FILLER_17_576
*848 FILLER_17_584
*849 FILLER_17_592
*850 FILLER_17_599
*851 FILLER_17_613
*852 FILLER_17_624
*853 FILLER_17_628
*854 FILLER_17_646
*855 FILLER_17_65
*856 FILLER_17_650
*857 FILLER_17_97
*858 FILLER_18_1
*859 FILLER_18_113
*860 FILLER_18_117
*861 FILLER_18_33
*862 FILLER_18_516
*863 FILLER_18_524
*864 FILLER_18_528
*865 FILLER_18_539
*866 FILLER_18_547
*867 FILLER_18_555
*868 FILLER_18_557
*869 FILLER_18_564
*870 FILLER_18_572
*871 FILLER_18_589
*872 FILLER_18_599
*873 FILLER_18_603
*874 FILLER_18_607
*875 FILLER_18_613
*876 FILLER_18_617
*877 FILLER_18_621
*878 FILLER_18_629
*879 FILLER_18_637
*880 FILLER_18_641
*881 FILLER_18_647
*882 FILLER_18_65
*883 FILLER_18_97
*884 FILLER_19_1
*885 FILLER_19_113
*886 FILLER_19_117
*887 FILLER_19_33
*888 FILLER_19_516
*889 FILLER_19_520
*890 FILLER_19_522
*891 FILLER_19_526
*892 FILLER_19_539
*893 FILLER_19_548
*894 FILLER_19_554
*895 FILLER_19_558
*896 FILLER_19_563
*897 FILLER_19_570
*898 FILLER_19_582
*899 FILLER_19_589
*900 FILLER_19_595
*901 FILLER_19_601
*902 FILLER_19_605
*903 FILLER_19_616
*904 FILLER_19_620
*905 FILLER_19_622
*906 FILLER_19_633
*907 FILLER_19_641
*908 FILLER_19_649
*909 FILLER_19_65
*910 FILLER_19_97
*911 FILLER_1_1
*912 FILLER_1_129
*913 FILLER_1_161
*914 FILLER_1_193
*915 FILLER_1_225
*916 FILLER_1_257
*917 FILLER_1_278
*918 FILLER_1_282
*919 FILLER_1_284
*920 FILLER_1_304
*921 FILLER_1_33
*922 FILLER_1_336
*923 FILLER_1_340
*924 FILLER_1_342
*925 FILLER_1_360
*926 FILLER_1_392
*927 FILLER_1_424
*928 FILLER_1_456
*929 FILLER_1_488
*930 FILLER_1_504
*931 FILLER_1_512
*932 FILLER_1_514
*933 FILLER_1_518
*934 FILLER_1_522
*935 FILLER_1_529
*936 FILLER_1_542
*937 FILLER_1_553
*938 FILLER_1_585
*939 FILLER_1_617
*940 FILLER_1_649
*941 FILLER_1_65
*942 FILLER_1_97
*943 FILLER_20_1
*944 FILLER_20_113
*945 FILLER_20_117
*946 FILLER_20_33
*947 FILLER_20_516
*948 FILLER_20_532
*949 FILLER_20_534
*950 FILLER_20_537
*951 FILLER_20_543
*952 FILLER_20_575
*953 FILLER_20_579
*954 FILLER_20_584
*955 FILLER_20_597
*956 FILLER_20_604
*957 FILLER_20_611
*958 FILLER_20_619
*959 FILLER_20_624
*960 FILLER_20_632
*961 FILLER_20_643
*962 FILLER_20_65
*963 FILLER_20_97
*964 FILLER_21_1
*965 FILLER_21_105
*966 FILLER_21_114
*967 FILLER_21_33
*968 FILLER_21_516
*969 FILLER_21_532
*970 FILLER_21_536
*971 FILLER_21_538
*972 FILLER_21_543
*973 FILLER_21_551
*974 FILLER_21_567
*975 FILLER_21_575
*976 FILLER_21_581
*977 FILLER_21_589
*978 FILLER_21_597
*979 FILLER_21_605
*980 FILLER_21_609
*981 FILLER_21_611
*982 FILLER_21_621
*983 FILLER_21_627
*984 FILLER_21_637
*985 FILLER_21_647
*986 FILLER_21_65
*987 FILLER_21_97
*988 FILLER_21_99
*989 FILLER_22_1
*990 FILLER_22_104
*991 FILLER_22_112
*992 FILLER_22_116
*993 FILLER_22_40
*994 FILLER_22_516
*995 FILLER_22_523
*996 FILLER_22_531
*997 FILLER_22_537
*998 FILLER_22_550
*999 FILLER_22_558
*1000 FILLER_22_562
*1001 FILLER_22_564
*1002 FILLER_22_569
*1003 FILLER_22_577
*1004 FILLER_22_581
*1005 FILLER_22_592
*1006 FILLER_22_610
*1007 FILLER_22_621
*1008 FILLER_22_639
*1009 FILLER_22_647
*1010 FILLER_22_72
*1011 FILLER_22_8
*1012 FILLER_23_1
*1013 FILLER_23_113
*1014 FILLER_23_117
*1015 FILLER_23_33
*1016 FILLER_23_516
*1017 FILLER_23_520
*1018 FILLER_23_525
*1019 FILLER_23_533
*1020 FILLER_23_537
*1021 FILLER_23_539
*1022 FILLER_23_549
*1023 FILLER_23_557
*1024 FILLER_23_565
*1025 FILLER_23_573
*1026 FILLER_23_577
*1027 FILLER_23_581
*1028 FILLER_23_588
*1029 FILLER_23_592
*1030 FILLER_23_598
*1031 FILLER_23_606
*1032 FILLER_23_611
*1033 FILLER_23_628
*1034 FILLER_23_632
*1035 FILLER_23_638
*1036 FILLER_23_642
*1037 FILLER_23_647
*1038 FILLER_23_65
*1039 FILLER_23_97
*1040 FILLER_24_1
*1041 FILLER_24_113
*1042 FILLER_24_117
*1043 FILLER_24_33
*1044 FILLER_24_516
*1045 FILLER_24_520
*1046 FILLER_24_522
*1047 FILLER_24_530
*1048 FILLER_24_538
*1049 FILLER_24_548
*1050 FILLER_24_552
*1051 FILLER_24_554
*1052 FILLER_24_560
*1053 FILLER_24_573
*1054 FILLER_24_577
*1055 FILLER_24_582
*1056 FILLER_24_599
*1057 FILLER_24_605
*1058 FILLER_24_619
*1059 FILLER_24_627
*1060 FILLER_24_646
*1061 FILLER_24_65
*1062 FILLER_24_650
*1063 FILLER_24_97
*1064 FILLER_25_1
*1065 FILLER_25_113
*1066 FILLER_25_117
*1067 FILLER_25_33
*1068 FILLER_25_516
*1069 FILLER_25_520
*1070 FILLER_25_528
*1071 FILLER_25_535
*1072 FILLER_25_539
*1073 FILLER_25_546
*1074 FILLER_25_555
*1075 FILLER_25_563
*1076 FILLER_25_573
*1077 FILLER_25_586
*1078 FILLER_25_594
*1079 FILLER_25_598
*1080 FILLER_25_603
*1081 FILLER_25_611
*1082 FILLER_25_616
*1083 FILLER_25_624
*1084 FILLER_25_629
*1085 FILLER_25_636
*1086 FILLER_25_647
*1087 FILLER_25_65
*1088 FILLER_25_97
*1089 FILLER_26_1
*1090 FILLER_26_113
*1091 FILLER_26_117
*1092 FILLER_26_33
*1093 FILLER_26_516
*1094 FILLER_26_525
*1095 FILLER_26_532
*1096 FILLER_26_540
*1097 FILLER_26_556
*1098 FILLER_26_561
*1099 FILLER_26_565
*1100 FILLER_26_572
*1101 FILLER_26_580
*1102 FILLER_26_587
*1103 FILLER_26_591
*1104 FILLER_26_596
*1105 FILLER_26_600
*1106 FILLER_26_602
*1107 FILLER_26_607
*1108 FILLER_26_620
*1109 FILLER_26_627
*1110 FILLER_26_635
*1111 FILLER_26_643
*1112 FILLER_26_65
*1113 FILLER_26_97
*1114 FILLER_27_1
*1115 FILLER_27_113
*1116 FILLER_27_117
*1117 FILLER_27_33
*1118 FILLER_27_516
*1119 FILLER_27_530
*1120 FILLER_27_538
*1121 FILLER_27_543
*1122 FILLER_27_549
*1123 FILLER_27_565
*1124 FILLER_27_569
*1125 FILLER_27_573
*1126 FILLER_27_580
*1127 FILLER_27_588
*1128 FILLER_27_593
*1129 FILLER_27_597
*1130 FILLER_27_609
*1131 FILLER_27_635
*1132 FILLER_27_647
*1133 FILLER_27_65
*1134 FILLER_27_97
*1135 FILLER_28_1
*1136 FILLER_28_113
*1137 FILLER_28_117
*1138 FILLER_28_33
*1139 FILLER_28_516
*1140 FILLER_28_543
*1141 FILLER_28_551
*1142 FILLER_28_559
*1143 FILLER_28_567
*1144 FILLER_28_575
*1145 FILLER_28_583
*1146 FILLER_28_599
*1147 FILLER_28_607
*1148 FILLER_28_611
*1149 FILLER_28_614
*1150 FILLER_28_627
*1151 FILLER_28_641
*1152 FILLER_28_649
*1153 FILLER_28_65
*1154 FILLER_28_97
*1155 FILLER_29_1
*1156 FILLER_29_113
*1157 FILLER_29_117
*1158 FILLER_29_33
*1159 FILLER_29_516
*1160 FILLER_29_525
*1161 FILLER_29_529
*1162 FILLER_29_535
*1163 FILLER_29_541
*1164 FILLER_29_547
*1165 FILLER_29_555
*1166 FILLER_29_559
*1167 FILLER_29_565
*1168 FILLER_29_569
*1169 FILLER_29_575
*1170 FILLER_29_583
*1171 FILLER_29_591
*1172 FILLER_29_599
*1173 FILLER_29_607
*1174 FILLER_29_618
*1175 FILLER_29_625
*1176 FILLER_29_631
*1177 FILLER_29_641
*1178 FILLER_29_649
*1179 FILLER_29_65
*1180 FILLER_29_97
*1181 FILLER_2_1
*1182 FILLER_2_129
*1183 FILLER_2_161
*1184 FILLER_2_193
*1185 FILLER_2_225
*1186 FILLER_2_261
*1187 FILLER_2_284
*1188 FILLER_2_307
*1189 FILLER_2_311
*1190 FILLER_2_33
*1191 FILLER_2_332
*1192 FILLER_2_364
*1193 FILLER_2_380
*1194 FILLER_2_388
*1195 FILLER_2_409
*1196 FILLER_2_441
*1197 FILLER_2_468
*1198 FILLER_2_500
*1199 FILLER_2_508
*1200 FILLER_2_513
*1201 FILLER_2_520
*1202 FILLER_2_528
*1203 FILLER_2_541
*1204 FILLER_2_550
*1205 FILLER_2_575
*1206 FILLER_2_607
*1207 FILLER_2_623
*1208 FILLER_2_632
*1209 FILLER_2_640
*1210 FILLER_2_647
*1211 FILLER_2_65
*1212 FILLER_2_97
*1213 FILLER_30_1
*1214 FILLER_30_113
*1215 FILLER_30_117
*1216 FILLER_30_33
*1217 FILLER_30_516
*1218 FILLER_30_524
*1219 FILLER_30_530
*1220 FILLER_30_543
*1221 FILLER_30_547
*1222 FILLER_30_558
*1223 FILLER_30_566
*1224 FILLER_30_574
*1225 FILLER_30_584
*1226 FILLER_30_590
*1227 FILLER_30_598
*1228 FILLER_30_602
*1229 FILLER_30_612
*1230 FILLER_30_620
*1231 FILLER_30_630
*1232 FILLER_30_644
*1233 FILLER_30_648
*1234 FILLER_30_65
*1235 FILLER_30_650
*1236 FILLER_30_97
*1237 FILLER_31_1
*1238 FILLER_31_113
*1239 FILLER_31_117
*1240 FILLER_31_33
*1241 FILLER_31_516
*1242 FILLER_31_528
*1243 FILLER_31_532
*1244 FILLER_31_542
*1245 FILLER_31_551
*1246 FILLER_31_559
*1247 FILLER_31_568
*1248 FILLER_31_572
*1249 FILLER_31_574
*1250 FILLER_31_584
*1251 FILLER_31_593
*1252 FILLER_31_597
*1253 FILLER_31_599
*1254 FILLER_31_604
*1255 FILLER_31_618
*1256 FILLER_31_626
*1257 FILLER_31_631
*1258 FILLER_31_639
*1259 FILLER_31_647
*1260 FILLER_31_65
*1261 FILLER_31_97
*1262 FILLER_32_1
*1263 FILLER_32_113
*1264 FILLER_32_117
*1265 FILLER_32_33
*1266 FILLER_32_516
*1267 FILLER_32_524
*1268 FILLER_32_529
*1269 FILLER_32_539
*1270 FILLER_32_547
*1271 FILLER_32_551
*1272 FILLER_32_553
*1273 FILLER_32_558
*1274 FILLER_32_571
*1275 FILLER_32_581
*1276 FILLER_32_589
*1277 FILLER_32_596
*1278 FILLER_32_611
*1279 FILLER_32_620
*1280 FILLER_32_629
*1281 FILLER_32_633
*1282 FILLER_32_635
*1283 FILLER_32_640
*1284 FILLER_32_648
*1285 FILLER_32_65
*1286 FILLER_32_650
*1287 FILLER_32_97
*1288 FILLER_33_1
*1289 FILLER_33_105
*1290 FILLER_33_109
*1291 FILLER_33_114
*1292 FILLER_33_33
*1293 FILLER_33_516
*1294 FILLER_33_539
*1295 FILLER_33_549
*1296 FILLER_33_556
*1297 FILLER_33_564
*1298 FILLER_33_574
*1299 FILLER_33_581
*1300 FILLER_33_587
*1301 FILLER_33_591
*1302 FILLER_33_595
*1303 FILLER_33_599
*1304 FILLER_33_603
*1305 FILLER_33_624
*1306 FILLER_33_647
*1307 FILLER_33_65
*1308 FILLER_33_97
*1309 FILLER_34_1
*1310 FILLER_34_104
*1311 FILLER_34_108
*1312 FILLER_34_114
*1313 FILLER_34_40
*1314 FILLER_34_516
*1315 FILLER_34_532
*1316 FILLER_34_534
*1317 FILLER_34_538
*1318 FILLER_34_546
*1319 FILLER_34_550
*1320 FILLER_34_553
*1321 FILLER_34_560
*1322 FILLER_34_570
*1323 FILLER_34_577
*1324 FILLER_34_584
*1325 FILLER_34_601
*1326 FILLER_34_614
*1327 FILLER_34_622
*1328 FILLER_34_633
*1329 FILLER_34_641
*1330 FILLER_34_647
*1331 FILLER_34_72
*1332 FILLER_34_8
*1333 FILLER_35_1
*1334 FILLER_35_113
*1335 FILLER_35_117
*1336 FILLER_35_33
*1337 FILLER_35_516
*1338 FILLER_35_532
*1339 FILLER_35_540
*1340 FILLER_35_548
*1341 FILLER_35_552
*1342 FILLER_35_556
*1343 FILLER_35_572
*1344 FILLER_35_580
*1345 FILLER_35_584
*1346 FILLER_35_587
*1347 FILLER_35_603
*1348 FILLER_35_608
*1349 FILLER_35_619