*SPEF "ieee 1481-1999"
*DESIGN "sram_multiplier_system"
*DATE "12:39:33 Wednesday October 01, 2025"
*VENDOR "The OpenROAD Project"
*PROGRAM "OpenROAD"
*VERSION "v2.0-17598-ga008522d8"
*DESIGN_FLOW "NAME_SCOPE LOCAL" "PIN_CAP NONE"
*DIVIDER /
*DELIMITER :
*BUS_DELIMITER []
*T_UNIT 1 NS
*C_UNIT 1 PF
*R_UNIT 1 OHM
*L_UNIT 1 HENRY

*NAME_MAP
*1 clk
*2 data_in[0]
*3 data_in[10]
*4 data_in[11]
*5 data_in[12]
*6 data_in[13]
*7 data_in[14]
*8 data_in[15]
*9 data_in[1]
*10 data_in[2]
*11 data_in[3]
*12 data_in[4]
*13 data_in[5]
*14 data_in[6]
*15 data_in[7]
*16 data_in[8]
*17 data_in[9]
*18 data_out[0]
*19 data_out[10]
*20 data_out[11]
*21 data_out[12]
*22 data_out[13]
*23 data_out[14]
*24 data_out[15]
*25 data_out[16]
*26 data_out[17]
*27 data_out[18]
*28 data_out[19]
*29 data_out[1]
*30 data_out[20]
*31 data_out[21]
*32 data_out[22]
*33 data_out[23]
*34 data_out[24]
*35 data_out[25]
*36 data_out[26]
*37 data_out[27]
*38 data_out[28]
*39 data_out[29]
*40 data_out[2]
*41 data_out[30]
*42 data_out[31]
*43 data_out[3]
*44 data_out[4]
*45 data_out[5]
*46 data_out[6]
*47 data_out[7]
*48 data_out[8]
*49 data_out[9]
*50 curr_state[1]
*51 init_enable
*52 pe_ce
*53 rst_n
*54 valid_reg_out
*57 _117_
*58 _118_
*59 _119_
*60 _120_
*61 _121_
*62 _122_
*63 _123_
*64 _124_
*65 _125_
*66 _126_
*67 _127_
*68 _128_
*69 _129_
*70 _130_
*71 _131_
*72 _132_
*73 _133_
*74 _134_
*75 _135_
*76 _136_
*77 _137_
*78 _138_
*79 _139_
*80 _140_
*81 _141_
*82 _142_
*83 _143_
*84 _144_
*85 _145_
*86 _146_
*87 _147_
*88 _148_
*89 _149_
*90 _150_
*91 _151_
*92 _152_
*93 _153_
*94 _154_
*95 _155_
*96 _156_
*97 _157_
*98 _158_
*99 _159_
*100 _160_
*101 _161_
*102 _162_
*103 _163_
*104 _164_
*105 _165_
*106 _166_
*107 _167_
*108 _168_
*109 _169_
*110 _170_
*111 _171_
*112 _172_
*113 _173_
*114 _174_
*115 _175_
*116 _176_
*117 _177_
*118 _178_
*119 _179_
*120 _180_
*121 _181_
*122 _182_
*123 _183_
*124 _184_
*125 _185_
*126 _186_
*127 _187_
*128 _188_
*129 _189_
*130 _190_
*131 _191_
*132 _192_
*133 _193_
*134 _194_
*135 _195_
*136 _196_
*137 _238_
*138 _239_
*139 _240_
*140 _241_
*141 _242_
*142 _243_
*143 _244_
*144 _245_
*145 _246_
*146 _247_
*147 _248_
*148 _249_
*149 _250_
*150 _251_
*151 _252_
*152 _253_
*153 _254_
*154 _255_
*155 _256_
*156 _257_
*157 _258_
*158 _259_
*159 _260_
*160 _261_
*161 _262_
*162 _263_
*163 _264_
*164 _265_
*165 _266_
*166 _267_
*167 _268_
*168 _269_
*169 _270_
*170 _271_
*171 _272_
*172 _273_
*173 _274_
*174 _275_
*175 _276_
*176 _277_
*177 _278_
*178 _279_
*179 _280_
*180 _331_
*181 _332_
*182 _333_
*183 _334_
*184 _335_
*185 _336_
*186 _337_
*187 _338_
*188 _339_
*189 _340_
*190 _341_
*191 _342_
*192 _343_
*193 _344_
*194 _345_
*195 _346_
*196 _347_
*197 _348_
*198 _349_
*199 _350_
*200 _351_
*201 _352_
*202 _353_
*203 _354_
*204 _355_
*205 _356_
*206 _357_
*207 _358_
*208 _359_
*209 _360_
*210 _361_
*211 _362_
*212 _363_
*213 _364_
*214 _365_
*215 _366_
*216 _367_
*217 _368_
*218 _369_
*219 _370_
*220 _371_
*221 _372_
*222 _373_
*223 _374_
*224 _375_
*225 _376_
*226 _377_
*227 _378_
*228 _379_
*229 _380_
*230 _381_
*231 _382_
*232 _383_
*233 _384_
*234 _385_
*235 _386_
*236 _387_
*237 _388_
*238 _389_
*239 _390_
*240 _391_
*241 _392_
*242 _393_
*243 _394_
*244 _395_
*245 _396_
*246 _397_
*247 _398_
*248 _399_
*249 _400_
*250 _401_
*251 _402_
*252 _403_
*253 _404_
*254 _405_
*255 _406_
*256 _407_
*257 _408_
*258 addr_ptr[0]
*259 addr_ptr[1]
*260 addr_ptr[2]
*261 addr_ptr[3]
*262 addr_ptr[4]
*263 clknet_0_clk
*264 clknet_2_0_0_clk
*265 clknet_2_1_0_clk
*266 clknet_2_2_0_clk
*267 clknet_2_3_0_clk
*268 clknet_3_0_0_clk
*269 clknet_3_1_0_clk
*270 clknet_3_2_0_clk
*271 clknet_3_3_0_clk
*272 clknet_3_4_0_clk
*273 clknet_3_5_0_clk
*274 clknet_3_6_0_clk
*275 clknet_3_7_0_clk
*276 curr_state[0]
*277 curr_state[2]
*278 data_in_reg[0]
*279 data_in_reg[10]
*280 data_in_reg[11]
*281 data_in_reg[12]
*282 data_in_reg[13]
*283 data_in_reg[14]
*284 data_in_reg[15]
*285 data_in_reg[1]
*286 data_in_reg[2]
*287 data_in_reg[3]
*288 data_in_reg[4]
*289 data_in_reg[5]
*290 data_in_reg[6]
*291 data_in_reg[7]
*292 data_in_reg[8]
*293 data_in_reg[9]
*294 init_count[0]
*295 init_count[1]
*296 init_count[2]
*297 init_count[3]
*298 init_count[4]
*299 net1
*300 net10
*301 net100
*302 net101
*303 net102
*304 net103
*305 net104
*306 net105
*307 net106
*308 net107
*309 net108
*310 net109
*311 net11
*312 net110
*313 net111
*314 net112
*315 net113
*316 net114
*317 net115
*318 net116
*319 net117
*320 net118
*321 net119
*322 net12
*323 net120
*324 net121
*325 net122
*326 net123
*327 net124
*328 net125
*329 net126
*330 net127
*331 net128
*332 net129
*333 net13
*334 net130
*335 net131
*336 net132
*337 net133
*338 net134
*339 net135
*340 net136
*341 net137
*342 net138
*343 net139
*344 net14
*345 net140
*346 net141
*347 net142
*348 net143
*349 net144
*350 net145
*351 net146
*352 net147
*353 net15
*354 net16
*355 net17
*356 net18
*357 net19
*358 net2
*359 net20
*360 net21
*361 net22
*362 net23
*363 net24
*364 net25
*365 net26
*366 net27
*367 net28
*368 net29
*369 net3
*370 net30
*371 net31
*372 net32
*373 net33
*374 net34
*375 net35
*376 net36
*377 net37
*378 net38
*379 net39
*380 net4
*381 net40
*382 net41
*383 net42
*384 net43
*385 net44
*386 net45
*387 net46
*388 net47
*389 net48
*390 net49
*391 net5
*392 net50
*393 net51
*394 net52
*395 net53
*396 net54
*397 net55
*398 net56
*399 net57
*400 net58
*401 net59
*402 net6
*403 net60
*404 net61
*405 net62
*406 net63
*407 net64
*408 net65
*409 net66
*410 net67
*411 net68
*412 net69
*413 net7
*414 net70
*415 net71
*416 net72
*417 net73
*418 net74
*419 net75
*420 net76
*421 net77
*422 net78
*423 net79
*424 net8
*425 net80
*426 net81
*427 net82
*428 net83
*429 net84
*430 net85
*431 net86
*432 net87
*433 net88
*434 net89
*435 net9
*436 net90
*437 net91
*438 net92
*439 net93
*440 net94
*441 net95
*442 net96
*443 net97
*444 net98
*445 net99
*446 product[0]
*447 product[10]
*448 product[11]
*449 product[12]
*450 product[13]
*451 product[14]
*452 product[15]
*453 product[16]
*454 product[17]
*455 product[18]
*456 product[19]
*457 product[1]
*458 product[20]
*459 product[21]
*460 product[22]
*461 product[23]
*462 product[24]
*463 product[25]
*464 product[26]
*465 product[27]
*466 product[28]
*467 product[29]
*468 product[2]
*469 product[30]
*470 product[31]
*471 product[3]
*472 product[4]
*473 product[5]
*474 product[6]
*475 product[7]
*476 product[8]
*477 product[9]
*478 sram_rdata[0]
*479 sram_rdata[10]
*480 sram_rdata[11]
*481 sram_rdata[12]
*482 sram_rdata[13]
*483 sram_rdata[14]
*484 sram_rdata[15]
*485 sram_rdata[1]
*486 sram_rdata[2]
*487 sram_rdata[3]
*488 sram_rdata[4]
*489 sram_rdata[5]
*490 sram_rdata[6]
*491 sram_rdata[7]
*492 sram_rdata[8]
*493 sram_rdata[9]
*494 sram_rdata_reg[0]
*495 sram_rdata_reg[10]
*496 sram_rdata_reg[11]
*497 sram_rdata_reg[12]
*498 sram_rdata_reg[13]
*499 sram_rdata_reg[14]
*500 sram_rdata_reg[15]
*501 sram_rdata_reg[1]
*502 sram_rdata_reg[2]
*503 sram_rdata_reg[3]
*504 sram_rdata_reg[4]
*505 sram_rdata_reg[5]
*506 sram_rdata_reg[6]
*507 sram_rdata_reg[7]
*508 sram_rdata_reg[8]
*509 sram_rdata_reg[9]
*510 u_multiplier_STAGE1_ACCI1_pp_10__15_
*511 u_multiplier_STAGE1_ACCI1_pp_10__16_
*512 u_multiplier_STAGE1_ACCI1_pp_10__17_
*513 u_multiplier_STAGE1_ACCI1_pp_10__18_
*514 u_multiplier_STAGE1_ACCI1_pp_10__19_
*515 u_multiplier_STAGE1_ACCI1_pp_10__20_
*516 u_multiplier_STAGE1_ACCI1_pp_11_1__15_
*517 u_multiplier_STAGE1_ACCI1_pp_11_1__16_
*518 u_multiplier_STAGE1_ACCI1_pp_11_1__17_
*519 u_multiplier_STAGE1_ACCI1_pp_11_1__18_
*520 u_multiplier_STAGE1_ACCI1_pp_11_1__19_
*521 u_multiplier_STAGE1_ACCI1_pp_11_1__20_
*522 u_multiplier_STAGE1_ACCI1_pp_11_2__15_
*523 u_multiplier_STAGE1_ACCI1_pp_11_2__16_
*524 u_multiplier_STAGE1_ACCI1_pp_11_2__17_
*525 u_multiplier_STAGE1_ACCI1_pp_11_2__18_
*526 u_multiplier_STAGE1_ACCI1_pp_11_2__19_
*527 u_multiplier_STAGE1_ACCI1_pp_11_2__20_
*528 u_multiplier_STAGE1_ACCI1_pp_12_1__15_
*529 u_multiplier_STAGE1_ACCI1_pp_12_1__16_
*530 u_multiplier_STAGE1_ACCI1_pp_12_1__17_
*531 u_multiplier_STAGE1_ACCI1_pp_12_1__18_
*532 u_multiplier_STAGE1_ACCI1_pp_12_1__19_
*533 u_multiplier_STAGE1_ACCI1_pp_12_1__20_
*534 u_multiplier_STAGE1_ACCI1_pp_12_2__15_
*535 u_multiplier_STAGE1_ACCI1_pp_12_2__16_
*536 u_multiplier_STAGE1_ACCI1_pp_12_2__17_
*537 u_multiplier_STAGE1_ACCI1_pp_12_2__18_
*538 u_multiplier_STAGE1_ACCI1_pp_12_2__19_
*539 u_multiplier_STAGE1_ACCI1_pp_12_2__20_
*540 u_multiplier_STAGE1_ACCI1_pp_13_1__15_
*541 u_multiplier_STAGE1_ACCI1_pp_13_1__16_
*542 u_multiplier_STAGE1_ACCI1_pp_13_1__17_
*543 u_multiplier_STAGE1_ACCI1_pp_13_1__18_
*544 u_multiplier_STAGE1_ACCI1_pp_13_1__19_
*545 u_multiplier_STAGE1_ACCI1_pp_13_1__20_
*546 u_multiplier_STAGE1_ACCI1_pp_13_2__15_
*547 u_multiplier_STAGE1_ACCI1_pp_13_2__16_
*548 u_multiplier_STAGE1_ACCI1_pp_13_2__17_
*549 u_multiplier_STAGE1_ACCI1_pp_13_2__18_
*550 u_multiplier_STAGE1_ACCI1_pp_13_2__19_
*551 u_multiplier_STAGE1_ACCI1_pp_13_2__20_
*552 u_multiplier_STAGE1_ACCI1_pp_13_3__15_
*553 u_multiplier_STAGE1_ACCI1_pp_13_3__16_
*554 u_multiplier_STAGE1_ACCI1_pp_13_3__17_
*555 u_multiplier_STAGE1_ACCI1_pp_13_3__18_
*556 u_multiplier_STAGE1_ACCI1_pp_13_3__19_
*557 u_multiplier_STAGE1_ACCI1_pp_13_3__20_
*558 u_multiplier_STAGE1_ACCI1_pp_14_1__15_
*559 u_multiplier_STAGE1_ACCI1_pp_14_1__16_
*560 u_multiplier_STAGE1_ACCI1_pp_14_1__17_
*561 u_multiplier_STAGE1_ACCI1_pp_14_1__18_
*562 u_multiplier_STAGE1_ACCI1_pp_14_1__19_
*563 u_multiplier_STAGE1_ACCI1_pp_14_1__20_
*564 u_multiplier_STAGE1_ACCI1_pp_14_2__15_
*565 u_multiplier_STAGE1_ACCI1_pp_14_2__16_
*566 u_multiplier_STAGE1_ACCI1_pp_14_2__17_
*567 u_multiplier_STAGE1_ACCI1_pp_14_2__18_
*568 u_multiplier_STAGE1_ACCI1_pp_14_2__19_
*569 u_multiplier_STAGE1_ACCI1_pp_14_2__20_
*570 u_multiplier_STAGE1_ACCI1_pp_14_3__15_
*571 u_multiplier_STAGE1_ACCI1_pp_14_3__16_
*572 u_multiplier_STAGE1_ACCI1_pp_14_3__17_
*573 u_multiplier_STAGE1_ACCI1_pp_14_3__18_
*574 u_multiplier_STAGE1_ACCI1_pp_14_3__19_
*575 u_multiplier_STAGE1_ACCI1_pp_14_3__20_
*576 u_multiplier_STAGE1_ACCI1_pp_15_1__15_
*577 u_multiplier_STAGE1_ACCI1_pp_15_1__16_
*578 u_multiplier_STAGE1_ACCI1_pp_15_1__17_
*579 u_multiplier_STAGE1_ACCI1_pp_15_1__18_
*580 u_multiplier_STAGE1_ACCI1_pp_15_1__19_
*581 u_multiplier_STAGE1_ACCI1_pp_15_1__20_
*582 u_multiplier_STAGE1_ACCI1_pp_15_2__15_
*583 u_multiplier_STAGE1_ACCI1_pp_15_2__16_
*584 u_multiplier_STAGE1_ACCI1_pp_15_2__17_
*585 u_multiplier_STAGE1_ACCI1_pp_15_2__18_
*586 u_multiplier_STAGE1_ACCI1_pp_15_2__19_
*587 u_multiplier_STAGE1_ACCI1_pp_15_2__20_
*588 u_multiplier_STAGE1_ACCI1_pp_15_3__15_
*589 u_multiplier_STAGE1_ACCI1_pp_15_3__16_
*590 u_multiplier_STAGE1_ACCI1_pp_15_3__17_
*591 u_multiplier_STAGE1_ACCI1_pp_15_3__18_
*592 u_multiplier_STAGE1_ACCI1_pp_15_3__19_
*593 u_multiplier_STAGE1_ACCI1_pp_15_3__20_
*594 u_multiplier_STAGE1_ACCI1_pp_15_4__15_
*595 u_multiplier_STAGE1_ACCI1_pp_15_4__16_
*596 u_multiplier_STAGE1_ACCI1_pp_15_4__17_
*597 u_multiplier_STAGE1_ACCI1_pp_15_4__18_
*598 u_multiplier_STAGE1_ACCI1_pp_15_4__19_
*599 u_multiplier_STAGE1_ACCI1_pp_15_4__20_
*600 u_multiplier_STAGE1_ACCI1_pp_9__15_
*601 u_multiplier_STAGE1_ACCI1_pp_9__16_
*602 u_multiplier_STAGE1_ACCI1_pp_9__17_
*603 u_multiplier_STAGE1_ACCI1_pp_9__18_
*604 u_multiplier_STAGE1_ACCI1_pp_9__19_
*605 u_multiplier_STAGE1_ACCI1_pp_9__20_
*606 u_multiplier_STAGE1_E_4_2_pp_16_1__11_
*607 u_multiplier_STAGE1_E_4_2_pp_16_1__12_
*608 u_multiplier_STAGE1_E_4_2_pp_16_1__13_
*609 u_multiplier_STAGE1_E_4_2_pp_16_1__14_
*610 u_multiplier_STAGE1_E_4_2_pp_16_1__15_
*611 u_multiplier_STAGE1_E_4_2_pp_16_1__16_
*612 u_multiplier_STAGE1_E_4_2_pp_16_1__17_
*613 u_multiplier_STAGE1_E_4_2_pp_16_2__11_
*614 u_multiplier_STAGE1_E_4_2_pp_16_2__12_
*615 u_multiplier_STAGE1_E_4_2_pp_16_2__13_
*616 u_multiplier_STAGE1_E_4_2_pp_16_2__14_
*617 u_multiplier_STAGE1_E_4_2_pp_16_2__15_
*618 u_multiplier_STAGE1_E_4_2_pp_16_2__16_
*619 u_multiplier_STAGE1_E_4_2_pp_16_2__17_
*620 u_multiplier_STAGE1_E_4_2_pp_16_3__11_
*621 u_multiplier_STAGE1_E_4_2_pp_16_3__12_
*622 u_multiplier_STAGE1_E_4_2_pp_16_3__13_
*623 u_multiplier_STAGE1_E_4_2_pp_16_3__14_
*624 u_multiplier_STAGE1_E_4_2_pp_16_3__15_
*625 u_multiplier_STAGE1_E_4_2_pp_16_3__16_
*626 u_multiplier_STAGE1_E_4_2_pp_16_3__17_
*627 u_multiplier_STAGE1_E_4_2_pp_17_1__11_
*628 u_multiplier_STAGE1_E_4_2_pp_17_1__12_
*629 u_multiplier_STAGE1_E_4_2_pp_17_1__13_
*630 u_multiplier_STAGE1_E_4_2_pp_17_1__14_
*631 u_multiplier_STAGE1_E_4_2_pp_17_1__15_
*632 u_multiplier_STAGE1_E_4_2_pp_17_1__16_
*633 u_multiplier_STAGE1_E_4_2_pp_17_1__17_
*634 u_multiplier_STAGE1_E_4_2_pp_17_2__11_
*635 u_multiplier_STAGE1_E_4_2_pp_17_2__12_
*636 u_multiplier_STAGE1_E_4_2_pp_17_2__13_
*637 u_multiplier_STAGE1_E_4_2_pp_17_2__14_
*638 u_multiplier_STAGE1_E_4_2_pp_17_2__15_
*639 u_multiplier_STAGE1_E_4_2_pp_17_2__16_
*640 u_multiplier_STAGE1_E_4_2_pp_17_2__17_
*641 u_multiplier_STAGE1_E_4_2_pp_17_3__11_
*642 u_multiplier_STAGE1_E_4_2_pp_17_3__12_
*643 u_multiplier_STAGE1_E_4_2_pp_17_3__13_
*644 u_multiplier_STAGE1_E_4_2_pp_17_3__14_
*645 u_multiplier_STAGE1_E_4_2_pp_17_3__15_
*646 u_multiplier_STAGE1_E_4_2_pp_17_3__16_
*647 u_multiplier_STAGE1_E_4_2_pp_17_3__17_
*648 u_multiplier_STAGE1_E_4_2_pp_18_1__11_
*649 u_multiplier_STAGE1_E_4_2_pp_18_1__12_
*650 u_multiplier_STAGE1_E_4_2_pp_18_1__13_
*651 u_multiplier_STAGE1_E_4_2_pp_18_1__14_
*652 u_multiplier_STAGE1_E_4_2_pp_18_1__15_
*653 u_multiplier_STAGE1_E_4_2_pp_18_1__16_
*654 u_multiplier_STAGE1_E_4_2_pp_18_1__17_
*655 u_multiplier_STAGE1_E_4_2_pp_18_2__11_
*656 u_multiplier_STAGE1_E_4_2_pp_18_2__12_
*657 u_multiplier_STAGE1_E_4_2_pp_18_2__13_
*658 u_multiplier_STAGE1_E_4_2_pp_18_2__14_
*659 u_multiplier_STAGE1_E_4_2_pp_18_2__15_
*660 u_multiplier_STAGE1_E_4_2_pp_18_2__16_
*661 u_multiplier_STAGE1_E_4_2_pp_18_2__17_
*662 u_multiplier_STAGE1_E_4_2_pp_18_3__11_
*663 u_multiplier_STAGE1_E_4_2_pp_18_3__12_
*664 u_multiplier_STAGE1_E_4_2_pp_18_3__13_
*665 u_multiplier_STAGE1_E_4_2_pp_18_3__14_
*666 u_multiplier_STAGE1_E_4_2_pp_18_3__15_
*667 u_multiplier_STAGE1_E_4_2_pp_18_3__16_
*668 u_multiplier_STAGE1_E_4_2_pp_18_3__17_
*669 u_multiplier_STAGE1_E_4_2_pp_19_1__11_
*670 u_multiplier_STAGE1_E_4_2_pp_19_1__12_
*671 u_multiplier_STAGE1_E_4_2_pp_19_1__13_
*672 u_multiplier_STAGE1_E_4_2_pp_19_1__14_
*673 u_multiplier_STAGE1_E_4_2_pp_19_1__15_
*674 u_multiplier_STAGE1_E_4_2_pp_19_1__16_
*675 u_multiplier_STAGE1_E_4_2_pp_19_1__17_
*676 u_multiplier_STAGE1_E_4_2_pp_19_2__11_
*677 u_multiplier_STAGE1_E_4_2_pp_19_2__12_
*678 u_multiplier_STAGE1_E_4_2_pp_19_2__13_
*679 u_multiplier_STAGE1_E_4_2_pp_19_2__14_
*680 u_multiplier_STAGE1_E_4_2_pp_19_2__15_
*681 u_multiplier_STAGE1_E_4_2_pp_19_2__16_
*682 u_multiplier_STAGE1_E_4_2_pp_19_2__17_
*683 u_multiplier_STAGE1_E_4_2_pp_20_1__11_
*684 u_multiplier_STAGE1_E_4_2_pp_20_1__12_
*685 u_multiplier_STAGE1_E_4_2_pp_20_1__13_
*686 u_multiplier_STAGE1_E_4_2_pp_20_1__14_
*687 u_multiplier_STAGE1_E_4_2_pp_20_1__15_
*688 u_multiplier_STAGE1_E_4_2_pp_20_1__16_
*689 u_multiplier_STAGE1_E_4_2_pp_20_1__17_
*690 u_multiplier_STAGE1_E_4_2_pp_20_2__11_
*691 u_multiplier_STAGE1_E_4_2_pp_20_2__12_
*692 u_multiplier_STAGE1_E_4_2_pp_20_2__13_
*693 u_multiplier_STAGE1_E_4_2_pp_20_2__14_
*694 u_multiplier_STAGE1_E_4_2_pp_20_2__15_
*695 u_multiplier_STAGE1_E_4_2_pp_20_2__16_
*696 u_multiplier_STAGE1_E_4_2_pp_20_2__17_
*697 u_multiplier_STAGE1_E_4_2_pp_21_1__11_
*698 u_multiplier_STAGE1_E_4_2_pp_21_1__12_
*699 u_multiplier_STAGE1_E_4_2_pp_21_1__13_
*700 u_multiplier_STAGE1_E_4_2_pp_21_1__14_
*701 u_multiplier_STAGE1_E_4_2_pp_21_1__15_
*702 u_multiplier_STAGE1_E_4_2_pp_21_1__16_
*703 u_multiplier_STAGE1_E_4_2_pp_21_1__17_
*704 u_multiplier_STAGE1_E_4_2_pp_22__11_
*705 u_multiplier_STAGE1_E_4_2_pp_22__12_
*706 u_multiplier_STAGE1_E_4_2_pp_22__13_
*707 u_multiplier_STAGE1_E_4_2_pp_22__14_
*708 u_multiplier_STAGE1_E_4_2_pp_22__15_
*709 u_multiplier_STAGE1_E_4_2_pp_22__16_
*710 u_multiplier_STAGE1_E_4_2_pp_22__17_
*711 u_multiplier_STAGE1_Full_adder_pp_16_4__08_
*712 u_multiplier_STAGE1_Full_adder_pp_16_4__09_
*713 u_multiplier_STAGE1_Full_adder_pp_16_4__10_
*714 u_multiplier_STAGE1_Full_adder_pp_16_4__11_
*715 u_multiplier_STAGE1_Full_adder_pp_19__08_
*716 u_multiplier_STAGE1_Full_adder_pp_19__09_
*717 u_multiplier_STAGE1_Full_adder_pp_19__10_
*718 u_multiplier_STAGE1_Full_adder_pp_19__11_
*719 u_multiplier_STAGE1_Full_adder_pp_21__08_
*720 u_multiplier_STAGE1_Full_adder_pp_21__09_
*721 u_multiplier_STAGE1_Full_adder_pp_21__10_
*722 u_multiplier_STAGE1_Full_adder_pp_21__11_
*723 u_multiplier_STAGE1_Full_adder_pp_23__08_
*724 u_multiplier_STAGE1_Full_adder_pp_23__09_
*725 u_multiplier_STAGE1_Full_adder_pp_23__10_
*726 u_multiplier_STAGE1_Full_adder_pp_23__11_
*727 u_multiplier_STAGE1__178_
*728 u_multiplier_STAGE1__179_
*729 u_multiplier_STAGE1__180_
*730 u_multiplier_STAGE1__181_
*731 u_multiplier_STAGE1__182_
*732 u_multiplier_STAGE1__183_
*733 u_multiplier_STAGE1__184_
*734 u_multiplier_STAGE1__185_
*735 u_multiplier_STAGE1__186_
*736 u_multiplier_STAGE1__187_
*737 u_multiplier_STAGE1__188_
*738 u_multiplier_STAGE1__189_
*739 u_multiplier_STAGE1__190_
*740 u_multiplier_STAGE1__191_
*741 u_multiplier_STAGE1__192_
*742 u_multiplier_STAGE1__193_
*743 u_multiplier_STAGE1__194_
*744 u_multiplier_STAGE1__195_
*745 u_multiplier_STAGE1__196_
*746 u_multiplier_STAGE1__197_
*747 u_multiplier_STAGE1__198_
*748 u_multiplier_STAGE1__199_
*749 u_multiplier_STAGE1__200_
*750 u_multiplier_STAGE1__201_
*751 u_multiplier_STAGE1__202_
*752 u_multiplier_STAGE1__203_
*753 u_multiplier_STAGE1__204_
*754 u_multiplier_STAGE1__205_
*755 u_multiplier_STAGE1__206_
*756 u_multiplier_STAGE1__207_
*757 u_multiplier_STAGE1__208_
*758 u_multiplier_STAGE1__209_
*759 u_multiplier_STAGE1__210_
*760 u_multiplier_STAGE1__211_
*761 u_multiplier_STAGE1__212_
*762 u_multiplier_STAGE1__213_
*763 u_multiplier_STAGE1__214_
*764 u_multiplier_STAGE1__215_
*765 u_multiplier_STAGE1__216_
*766 u_multiplier_STAGE1__217_
*767 u_multiplier_STAGE1__218_
*768 u_multiplier_STAGE1__219_
*769 u_multiplier_STAGE1__220_
*770 u_multiplier_STAGE1__221_
*771 u_multiplier_STAGE1__222_
*772 u_multiplier_STAGE1__223_
*773 u_multiplier_STAGE1__224_
*774 u_multiplier_STAGE1__225_
*775 u_multiplier_STAGE1__226_
*776 u_multiplier_STAGE1__227_
*777 u_multiplier_STAGE1__228_
*778 u_multiplier_STAGE1__229_
*779 u_multiplier_STAGE1__230_
*780 u_multiplier_STAGE1__231_
*781 u_multiplier_STAGE1__232_
*782 u_multiplier_STAGE1__233_
*783 u_multiplier_STAGE1__234_
*784 u_multiplier_STAGE1__235_
*785 u_multiplier_STAGE1__236_
*786 u_multiplier_STAGE1__237_
*787 u_multiplier_STAGE1__238_
*788 u_multiplier_STAGE1__239_
*789 u_multiplier_STAGE1__240_
*790 u_multiplier_STAGE1__241_
*791 u_multiplier_STAGE1__242_
*792 u_multiplier_STAGE1__243_
*793 u_multiplier_STAGE1__244_
*794 u_multiplier_STAGE1__245_
*795 u_multiplier_STAGE1__246_
*796 u_multiplier_STAGE1__247_
*797 u_multiplier_STAGE1__248_
*798 u_multiplier_STAGE1__249_
*799 u_multiplier_STAGE1__250_
*800 u_multiplier_STAGE1__251_
*801 u_multiplier_STAGE1__252_
*802 u_multiplier_STAGE1__253_
*803 u_multiplier_STAGE1__254_
*804 u_multiplier_STAGE1__255_
*805 u_multiplier_STAGE1__256_
*806 u_multiplier_STAGE1__257_
*807 u_multiplier_STAGE1__258_
*808 u_multiplier_STAGE1__259_
*809 u_multiplier_STAGE1__260_
*810 u_multiplier_STAGE1__261_
*811 u_multiplier_STAGE1__262_
*812 u_multiplier_STAGE1__263_
*813 u_multiplier_STAGE1__264_
*814 u_multiplier_STAGE1__265_
*815 u_multiplier_STAGE1__266_
*816 u_multiplier_STAGE1__267_
*817 u_multiplier_STAGE1__268_
*818 u_multiplier_STAGE1__269_
*819 u_multiplier_STAGE1__270_
*820 u_multiplier_STAGE1__271_
*821 u_multiplier_STAGE1__272_
*822 u_multiplier_STAGE1__273_
*823 u_multiplier_STAGE1__274_
*824 u_multiplier_STAGE1__275_
*825 u_multiplier_STAGE1__276_
*826 u_multiplier_STAGE1__277_
*827 u_multiplier_STAGE1__278_
*828 u_multiplier_STAGE1__279_
*829 u_multiplier_STAGE1__280_
*830 u_multiplier_STAGE1__281_
*831 u_multiplier_STAGE1__282_
*832 u_multiplier_STAGE1__283_
*833 u_multiplier_STAGE1__284_
*834 u_multiplier_STAGE1__285_
*835 u_multiplier_STAGE1__286_
*836 u_multiplier_STAGE1__287_
*837 u_multiplier_STAGE1__288_
*838 u_multiplier_STAGE1__289_
*839 u_multiplier_STAGE1__290_
*840 u_multiplier_STAGE1__291_
*841 u_multiplier_STAGE1__292_
*842 u_multiplier_STAGE1__293_
*843 u_multiplier_STAGE1__294_
*844 u_multiplier_STAGE1__295_
*845 u_multiplier_STAGE1__296_
*846 u_multiplier_STAGE1__297_
*847 u_multiplier_STAGE1__298_
*848 u_multiplier_STAGE1__299_
*849 u_multiplier_STAGE1__300_
*850 u_multiplier_STAGE1__301_
*851 u_multiplier_STAGE1__302_
*852 u_multiplier_STAGE1__303_
*853 u_multiplier_STAGE1__304_
*854 u_multiplier_STAGE1__305_
*855 u_multiplier_STAGE1__306_
*856 u_multiplier_STAGE1__307_
*857 u_multiplier_STAGE1__308_
*858 u_multiplier_STAGE1__309_
*859 u_multiplier_STAGE1__310_
*860 u_multiplier_STAGE1__311_
*861 u_multiplier_STAGE1__312_
*862 u_multiplier_STAGE1__313_
*863 u_multiplier_STAGE1__314_
*864 u_multiplier_STAGE1__315_
*865 u_multiplier_STAGE1__316_
*866 u_multiplier_STAGE1__317_
*867 u_multiplier_STAGE1__318_
*868 u_multiplier_STAGE1__319_
*869 u_multiplier_STAGE1__320_
*870 u_multiplier_STAGE1__321_
*871 u_multiplier_STAGE1__322_
*872 u_multiplier_STAGE1__323_
*873 u_multiplier_STAGE1_pp_16_c2
*874 u_multiplier_STAGE1_pp_16_c4
*875 u_multiplier_STAGE1_pp_16_c6
*876 u_multiplier_STAGE1_pp_17_c2
*877 u_multiplier_STAGE1_pp_17_c4
*878 u_multiplier_STAGE1_pp_17_c6
*879 u_multiplier_STAGE1_pp_18_c2
*880 u_multiplier_STAGE1_pp_18_c4
*881 u_multiplier_STAGE1_pp_19_c2
*882 u_multiplier_STAGE1_pp_19_c4
*883 u_multiplier_STAGE1_pp_20_c2
*884 u_multiplier_STAGE1_pp_21_c2
*885 u_multiplier_STAGE2_ACCI1_pp_10_1__15_
*886 u_multiplier_STAGE2_ACCI1_pp_10_1__16_
*887 u_multiplier_STAGE2_ACCI1_pp_10_1__17_
*888 u_multiplier_STAGE2_ACCI1_pp_10_1__18_
*889 u_multiplier_STAGE2_ACCI1_pp_10_1__19_
*890 u_multiplier_STAGE2_ACCI1_pp_10_1__20_
*891 u_multiplier_STAGE2_ACCI1_pp_10_2__15_
*892 u_multiplier_STAGE2_ACCI1_pp_10_2__16_
*893 u_multiplier_STAGE2_ACCI1_pp_10_2__17_
*894 u_multiplier_STAGE2_ACCI1_pp_10_2__18_
*895 u_multiplier_STAGE2_ACCI1_pp_10_2__19_
*896 u_multiplier_STAGE2_ACCI1_pp_10_2__20_
*897 u_multiplier_STAGE2_ACCI1_pp_11_1__15_
*898 u_multiplier_STAGE2_ACCI1_pp_11_1__16_
*899 u_multiplier_STAGE2_ACCI1_pp_11_1__17_
*900 u_multiplier_STAGE2_ACCI1_pp_11_1__18_
*901 u_multiplier_STAGE2_ACCI1_pp_11_1__19_
*902 u_multiplier_STAGE2_ACCI1_pp_11_1__20_
*903 u_multiplier_STAGE2_ACCI1_pp_11_2__15_
*904 u_multiplier_STAGE2_ACCI1_pp_11_2__16_
*905 u_multiplier_STAGE2_ACCI1_pp_11_2__17_
*906 u_multiplier_STAGE2_ACCI1_pp_11_2__18_
*907 u_multiplier_STAGE2_ACCI1_pp_11_2__19_
*908 u_multiplier_STAGE2_ACCI1_pp_11_2__20_
*909 u_multiplier_STAGE2_ACCI1_pp_12_1__15_
*910 u_multiplier_STAGE2_ACCI1_pp_12_1__16_
*911 u_multiplier_STAGE2_ACCI1_pp_12_1__17_
*912 u_multiplier_STAGE2_ACCI1_pp_12_1__18_
*913 u_multiplier_STAGE2_ACCI1_pp_12_1__19_
*914 u_multiplier_STAGE2_ACCI1_pp_12_1__20_
*915 u_multiplier_STAGE2_ACCI1_pp_12_2__15_
*916 u_multiplier_STAGE2_ACCI1_pp_12_2__16_
*917 u_multiplier_STAGE2_ACCI1_pp_12_2__17_
*918 u_multiplier_STAGE2_ACCI1_pp_12_2__18_
*919 u_multiplier_STAGE2_ACCI1_pp_12_2__19_
*920 u_multiplier_STAGE2_ACCI1_pp_12_2__20_
*921 u_multiplier_STAGE2_ACCI1_pp_13_1__15_
*922 u_multiplier_STAGE2_ACCI1_pp_13_1__16_
*923 u_multiplier_STAGE2_ACCI1_pp_13_1__17_
*924 u_multiplier_STAGE2_ACCI1_pp_13_1__18_
*925 u_multiplier_STAGE2_ACCI1_pp_13_1__19_
*926 u_multiplier_STAGE2_ACCI1_pp_13_1__20_
*927 u_multiplier_STAGE2_ACCI1_pp_13_2__15_
*928 u_multiplier_STAGE2_ACCI1_pp_13_2__16_
*929 u_multiplier_STAGE2_ACCI1_pp_13_2__17_
*930 u_multiplier_STAGE2_ACCI1_pp_13_2__18_
*931 u_multiplier_STAGE2_ACCI1_pp_13_2__19_
*932 u_multiplier_STAGE2_ACCI1_pp_13_2__20_
*933 u_multiplier_STAGE2_ACCI1_pp_14_1__15_
*934 u_multiplier_STAGE2_ACCI1_pp_14_1__16_
*935 u_multiplier_STAGE2_ACCI1_pp_14_1__17_
*936 u_multiplier_STAGE2_ACCI1_pp_14_1__18_
*937 u_multiplier_STAGE2_ACCI1_pp_14_1__19_
*938 u_multiplier_STAGE2_ACCI1_pp_14_1__20_
*939 u_multiplier_STAGE2_ACCI1_pp_14_2__15_
*940 u_multiplier_STAGE2_ACCI1_pp_14_2__16_
*941 u_multiplier_STAGE2_ACCI1_pp_14_2__17_
*942 u_multiplier_STAGE2_ACCI1_pp_14_2__18_
*943 u_multiplier_STAGE2_ACCI1_pp_14_2__19_
*944 u_multiplier_STAGE2_ACCI1_pp_14_2__20_
*945 u_multiplier_STAGE2_ACCI1_pp_15_1__15_
*946 u_multiplier_STAGE2_ACCI1_pp_15_1__16_
*947 u_multiplier_STAGE2_ACCI1_pp_15_1__17_
*948 u_multiplier_STAGE2_ACCI1_pp_15_1__18_
*949 u_multiplier_STAGE2_ACCI1_pp_15_1__19_
*950 u_multiplier_STAGE2_ACCI1_pp_15_1__20_
*951 u_multiplier_STAGE2_ACCI1_pp_15_2__15_
*952 u_multiplier_STAGE2_ACCI1_pp_15_2__16_
*953 u_multiplier_STAGE2_ACCI1_pp_15_2__17_
*954 u_multiplier_STAGE2_ACCI1_pp_15_2__18_
*955 u_multiplier_STAGE2_ACCI1_pp_15_2__19_
*956 u_multiplier_STAGE2_ACCI1_pp_15_2__20_
*957 u_multiplier_STAGE2_ACCI1_pp_5__15_
*958 u_multiplier_STAGE2_ACCI1_pp_5__16_
*959 u_multiplier_STAGE2_ACCI1_pp_5__17_
*960 u_multiplier_STAGE2_ACCI1_pp_5__18_
*961 u_multiplier_STAGE2_ACCI1_pp_5__19_
*962 u_multiplier_STAGE2_ACCI1_pp_5__20_
*963 u_multiplier_STAGE2_ACCI1_pp_6__15_
*964 u_multiplier_STAGE2_ACCI1_pp_6__16_
*965 u_multiplier_STAGE2_ACCI1_pp_6__17_
*966 u_multiplier_STAGE2_ACCI1_pp_6__18_
*967 u_multiplier_STAGE2_ACCI1_pp_6__19_
*968 u_multiplier_STAGE2_ACCI1_pp_6__20_
*969 u_multiplier_STAGE2_ACCI1_pp_7_1__15_
*970 u_multiplier_STAGE2_ACCI1_pp_7_1__16_
*971 u_multiplier_STAGE2_ACCI1_pp_7_1__17_
*972 u_multiplier_STAGE2_ACCI1_pp_7_1__18_
*973 u_multiplier_STAGE2_ACCI1_pp_7_1__19_
*974 u_multiplier_STAGE2_ACCI1_pp_7_1__20_
*975 u_multiplier_STAGE2_ACCI1_pp_7_2__15_
*976 u_multiplier_STAGE2_ACCI1_pp_7_2__16_
*977 u_multiplier_STAGE2_ACCI1_pp_7_2__17_
*978 u_multiplier_STAGE2_ACCI1_pp_7_2__18_
*979 u_multiplier_STAGE2_ACCI1_pp_7_2__19_
*980 u_multiplier_STAGE2_ACCI1_pp_7_2__20_
*981 u_multiplier_STAGE2_ACCI1_pp_8_1__15_
*982 u_multiplier_STAGE2_ACCI1_pp_8_1__16_
*983 u_multiplier_STAGE2_ACCI1_pp_8_1__17_
*984 u_multiplier_STAGE2_ACCI1_pp_8_1__18_
*985 u_multiplier_STAGE2_ACCI1_pp_8_1__19_
*986 u_multiplier_STAGE2_ACCI1_pp_8_1__20_
*987 u_multiplier_STAGE2_ACCI1_pp_8_2__15_
*988 u_multiplier_STAGE2_ACCI1_pp_8_2__16_
*989 u_multiplier_STAGE2_ACCI1_pp_8_2__17_
*990 u_multiplier_STAGE2_ACCI1_pp_8_2__18_
*991 u_multiplier_STAGE2_ACCI1_pp_8_2__19_
*992 u_multiplier_STAGE2_ACCI1_pp_8_2__20_
*993 u_multiplier_STAGE2_ACCI1_pp_9_1__15_
*994 u_multiplier_STAGE2_ACCI1_pp_9_1__16_
*995 u_multiplier_STAGE2_ACCI1_pp_9_1__17_
*996 u_multiplier_STAGE2_ACCI1_pp_9_1__18_
*997 u_multiplier_STAGE2_ACCI1_pp_9_1__19_
*998 u_multiplier_STAGE2_ACCI1_pp_9_1__20_
*999 u_multiplier_STAGE2_ACCI1_pp_9_2__15_
*1000 u_multiplier_STAGE2_ACCI1_pp_9_2__16_
*1001 u_multiplier_STAGE2_ACCI1_pp_9_2__17_
*1002 u_multiplier_STAGE2_ACCI1_pp_9_2__18_
*1003 u_multiplier_STAGE2_ACCI1_pp_9_2__19_
*1004 u_multiplier_STAGE2_ACCI1_pp_9_2__20_
*1005 u_multiplier_STAGE2_E_4_2_pp_16_1__11_
*1006 u_multiplier_STAGE2_E_4_2_pp_16_1__12_
*1007 u_multiplier_STAGE2_E_4_2_pp_16_1__13_
*1008 u_multiplier_STAGE2_E_4_2_pp_16_1__14_
*1009 u_multiplier_STAGE2_E_4_2_pp_16_1__15_
*1010 u_multiplier_STAGE2_E_4_2_pp_16_1__16_
*1011 u_multiplier_STAGE2_E_4_2_pp_16_1__17_
*1012 u_multiplier_STAGE2_E_4_2_pp_16_2__11_
*1013 u_multiplier_STAGE2_E_4_2_pp_16_2__12_
*1014 u_multiplier_STAGE2_E_4_2_pp_16_2__13_
*1015 u_multiplier_STAGE2_E_4_2_pp_16_2__14_
*1016 u_multiplier_STAGE2_E_4_2_pp_16_2__15_
*1017 u_multiplier_STAGE2_E_4_2_pp_16_2__16_
*1018 u_multiplier_STAGE2_E_4_2_pp_16_2__17_
*1019 u_multiplier_STAGE2_E_4_2_pp_17_1__11_
*1020 u_multiplier_STAGE2_E_4_2_pp_17_1__12_
*1021 u_multiplier_STAGE2_E_4_2_pp_17_1__13_
*1022 u_multiplier_STAGE2_E_4_2_pp_17_1__14_
*1023 u_multiplier_STAGE2_E_4_2_pp_17_1__15_
*1024 u_multiplier_STAGE2_E_4_2_pp_17_1__16_
*1025 u_multiplier_STAGE2_E_4_2_pp_17_1__17_
*1026 u_multiplier_STAGE2_E_4_2_pp_17_2__11_
*1027 u_multiplier_STAGE2_E_4_2_pp_17_2__12_
*1028 u_multiplier_STAGE2_E_4_2_pp_17_2__13_
*1029 u_multiplier_STAGE2_E_4_2_pp_17_2__14_
*1030 u_multiplier_STAGE2_E_4_2_pp_17_2__15_
*1031 u_multiplier_STAGE2_E_4_2_pp_17_2__16_
*1032 u_multiplier_STAGE2_E_4_2_pp_17_2__17_
*1033 u_multiplier_STAGE2_E_4_2_pp_18_1__11_
*1034 u_multiplier_STAGE2_E_4_2_pp_18_1__12_
*1035 u_multiplier_STAGE2_E_4_2_pp_18_1__13_
*1036 u_multiplier_STAGE2_E_4_2_pp_18_1__14_
*1037 u_multiplier_STAGE2_E_4_2_pp_18_1__15_
*1038 u_multiplier_STAGE2_E_4_2_pp_18_1__16_
*1039 u_multiplier_STAGE2_E_4_2_pp_18_1__17_
*1040 u_multiplier_STAGE2_E_4_2_pp_18_2__11_
*1041 u_multiplier_STAGE2_E_4_2_pp_18_2__12_
*1042 u_multiplier_STAGE2_E_4_2_pp_18_2__13_
*1043 u_multiplier_STAGE2_E_4_2_pp_18_2__14_
*1044 u_multiplier_STAGE2_E_4_2_pp_18_2__15_
*1045 u_multiplier_STAGE2_E_4_2_pp_18_2__16_
*1046 u_multiplier_STAGE2_E_4_2_pp_18_2__17_
*1047 u_multiplier_STAGE2_E_4_2_pp_19_1__11_
*1048 u_multiplier_STAGE2_E_4_2_pp_19_1__12_
*1049 u_multiplier_STAGE2_E_4_2_pp_19_1__13_
*1050 u_multiplier_STAGE2_E_4_2_pp_19_1__14_
*1051 u_multiplier_STAGE2_E_4_2_pp_19_1__15_
*1052 u_multiplier_STAGE2_E_4_2_pp_19_1__16_
*1053 u_multiplier_STAGE2_E_4_2_pp_19_1__17_
*1054 u_multiplier_STAGE2_E_4_2_pp_19_2__11_
*1055 u_multiplier_STAGE2_E_4_2_pp_19_2__12_
*1056 u_multiplier_STAGE2_E_4_2_pp_19_2__13_
*1057 u_multiplier_STAGE2_E_4_2_pp_19_2__14_
*1058 u_multiplier_STAGE2_E_4_2_pp_19_2__15_
*1059 u_multiplier_STAGE2_E_4_2_pp_19_2__16_
*1060 u_multiplier_STAGE2_E_4_2_pp_19_2__17_
*1061 u_multiplier_STAGE2_E_4_2_pp_20_1__11_
*1062 u_multiplier_STAGE2_E_4_2_pp_20_1__12_
*1063 u_multiplier_STAGE2_E_4_2_pp_20_1__13_
*1064 u_multiplier_STAGE2_E_4_2_pp_20_1__14_
*1065 u_multiplier_STAGE2_E_4_2_pp_20_1__15_
*1066 u_multiplier_STAGE2_E_4_2_pp_20_1__16_
*1067 u_multiplier_STAGE2_E_4_2_pp_20_1__17_
*1068 u_multiplier_STAGE2_E_4_2_pp_20_2__11_
*1069 u_multiplier_STAGE2_E_4_2_pp_20_2__12_
*1070 u_multiplier_STAGE2_E_4_2_pp_20_2__13_
*1071 u_multiplier_STAGE2_E_4_2_pp_20_2__14_
*1072 u_multiplier_STAGE2_E_4_2_pp_20_2__15_
*1073 u_multiplier_STAGE2_E_4_2_pp_20_2__16_
*1074 u_multiplier_STAGE2_E_4_2_pp_20_2__17_
*1075 u_multiplier_STAGE2_E_4_2_pp_21_1__11_