*SPEF "ieee 1481-1999"
*DESIGN "sram_multiplier_system"
*DATE "12:07:48 Wednesday October 01, 2025"
*VENDOR "The OpenROAD Project"
*PROGRAM "OpenROAD"
*VERSION "v2.0-17598-ga008522d8"
*DESIGN_FLOW "NAME_SCOPE LOCAL" "PIN_CAP NONE"
*DIVIDER /
*DELIMITER :
*BUS_DELIMITER []
*T_UNIT 1 NS
*C_UNIT 1 PF
*R_UNIT 1 OHM
*L_UNIT 1 HENRY

*NAME_MAP
*1 clk
*2 data_in[0]
*3 data_in[1]
*4 data_in[2]
*5 data_in[3]
*6 data_in[4]
*7 data_in[5]
*8 data_in[6]
*9 data_in[7]
*10 data_out[0]
*11 data_out[10]
*12 data_out[11]
*13 data_out[12]
*14 data_out[13]
*15 data_out[14]
*16 data_out[15]
*17 data_out[1]
*18 data_out[2]
*19 data_out[3]
*20 data_out[4]
*21 data_out[5]
*22 data_out[6]
*23 data_out[7]
*24 data_out[8]
*25 data_out[9]
*26 curr_state[1]
*27 init_enable
*28 pe_ce
*29 rst_n
*30 valid_reg_out
*33 _090_
*34 _091_
*35 _092_
*36 _093_
*37 _094_
*38 _095_
*39 _096_
*40 _097_
*41 _098_
*42 _099_
*43 _100_
*44 _101_
*45 _102_
*46 _103_
*47 _104_
*48 _105_
*49 _106_
*50 _107_
*51 _108_
*52 _109_
*53 _110_
*54 _111_
*55 _112_
*56 _113_
*57 _114_
*58 _115_
*59 _116_
*60 _117_
*61 _118_
*62 _119_
*63 _120_
*64 _121_
*65 _122_
*66 _123_
*67 _124_
*68 _125_
*69 _126_
*70 _127_
*71 _128_
*72 _129_
*73 _130_
*74 _131_
*75 _132_
*76 _133_
*77 _134_
*78 _135_
*79 _165_
*80 _166_
*81 _167_
*82 _168_
*83 _169_
*84 _170_
*85 _171_
*86 _172_
*87 _173_
*88 _174_
*89 _175_
*90 _176_
*91 _177_
*92 _178_
*93 _179_
*94 _180_
*95 _181_
*96 _182_
*97 _183_
*98 _184_
*99 _185_
*100 _186_
*101 _187_
*102 _188_
*103 _189_
*104 _190_
*105 _191_
*106 _192_
*107 _193_
*108 _194_
*109 _195_
*110 _196_
*111 _197_
*112 _198_
*113 _199_
*114 _200_
*115 _201_
*116 _228_
*117 _229_
*118 _230_
*119 _231_
*120 _232_
*121 _233_
*122 _234_
*123 _235_
*124 _236_
*125 _237_
*126 _238_
*127 _239_
*128 _240_
*129 _241_
*130 _242_
*131 _243_
*132 _244_
*133 _245_
*134 _246_
*135 _247_
*136 _248_
*137 _249_
*138 _250_
*139 _251_
*140 _252_
*141 _253_
*142 _254_
*143 _255_
*144 _256_
*145 _257_
*146 _258_
*147 _259_
*148 _260_
*149 _261_
*150 _262_
*151 _263_
*152 _264_
*153 _265_
*154 _266_
*155 _267_
*156 _268_
*157 _269_
*158 _270_
*159 _271_
*160 addr_ptr[0]
*161 addr_ptr[1]
*162 addr_ptr[2]
*163 addr_ptr[3]
*164 clknet_0_clk
*165 clknet_2_0__leaf_clk
*166 clknet_2_1__leaf_clk
*167 clknet_2_2__leaf_clk
*168 clknet_2_3__leaf_clk
*169 curr_state[0]
*170 curr_state[2]
*171 data_in_reg[0]
*172 data_in_reg[1]
*173 data_in_reg[2]
*174 data_in_reg[3]
*175 data_in_reg[4]
*176 data_in_reg[5]
*177 data_in_reg[6]
*178 data_in_reg[7]
*179 init_count[0]
*180 init_count[1]
*181 init_count[2]
*182 init_count[3]
*183 net1
*184 net10
*185 net11
*186 net12
*187 net13
*188 net14
*189 net15
*190 net16
*191 net17
*192 net18
*193 net19
*194 net2
*195 net20
*196 net21
*197 net22
*198 net23
*199 net24
*200 net25
*201 net26
*202 net27
*203 net28
*204 net29
*205 net3
*206 net30
*207 net31
*208 net32
*209 net33
*210 net34
*211 net35
*212 net36
*213 net37
*214 net38
*215 net39
*216 net4
*217 net40
*218 net41
*219 net42
*220 net43
*221 net44
*222 net45
*223 net46
*224 net47
*225 net48
*226 net49
*227 net5
*228 net50
*229 net51
*230 net52
*231 net53
*232 net54
*233 net55
*234 net56
*235 net57
*236 net58
*237 net59
*238 net6
*239 net60
*240 net61
*241 net62
*242 net63
*243 net64
*244 net65
*245 net66
*246 net67
*247 net68
*248 net69
*249 net7
*250 net70
*251 net71
*252 net72
*253 net73
*254 net74
*255 net75
*256 net76
*257 net77
*258 net78
*259 net79
*260 net8
*261 net80
*262 net81
*263 net82
*264 net83
*265 net84
*266 net85
*267 net86
*268 net87
*269 net88
*270 net89
*271 net9
*272 net90
*273 product[0]
*274 product[10]
*275 product[11]
*276 product[12]
*277 product[13]
*278 product[14]
*279 product[15]
*280 product[1]
*281 product[2]
*282 product[3]
*283 product[4]
*284 product[5]
*285 product[6]
*286 product[7]
*287 product[8]
*288 product[9]
*289 sram_rdata[0]
*290 sram_rdata[1]
*291 sram_rdata[2]
*292 sram_rdata[3]
*293 sram_rdata[4]
*294 sram_rdata[5]
*295 sram_rdata[6]
*296 sram_rdata[7]
*297 sram_rdata_reg[0]
*298 sram_rdata_reg[1]
*299 sram_rdata_reg[2]
*300 sram_rdata_reg[3]
*301 sram_rdata_reg[4]
*302 sram_rdata_reg[5]
*303 sram_rdata_reg[6]
*304 sram_rdata_reg[7]
*305 u_multiplier_K[0]
*306 u_multiplier_K[1]
*307 u_multiplier_K[2]
*308 u_multiplier_LODx_Middle__3_
*309 u_multiplier_LODx__12_
*310 u_multiplier_LODx__13_
*311 u_multiplier_LODx_lod2_0__09_
*312 u_multiplier_LODx_lod2_0__10_
*313 u_multiplier_LODx_lod2_0__11_
*314 u_multiplier_LODx_lod2_1__09_
*315 u_multiplier_LODx_lod2_1__10_
*316 u_multiplier_LODx_lod2_1__11_
*317 u_multiplier_LODx_select[0]
*318 u_multiplier_LODx_select[1]
*319 u_multiplier_LODx_z[0]
*320 u_multiplier_LODx_z[1]
*321 u_multiplier_LODx_z[2]
*322 u_multiplier_LODx_z[3]
*323 u_multiplier_LODx_z[4]
*324 u_multiplier_LODx_z[5]
*325 u_multiplier_LODx_z[6]
*326 u_multiplier_LODx_z[7]
*327 u_multiplier_LODy_Middle__3_
*328 u_multiplier_LODy__12_
*329 u_multiplier_LODy__13_
*330 u_multiplier_LODy_lod2_0__09_
*331 u_multiplier_LODy_lod2_0__10_
*332 u_multiplier_LODy_lod2_0__11_
*333 u_multiplier_LODy_lod2_1__09_
*334 u_multiplier_LODy_lod2_1__10_
*335 u_multiplier_LODy_lod2_1__11_
*336 u_multiplier_LODy_select[0]
*337 u_multiplier_LODy_select[1]
*338 u_multiplier_LODy_z[0]
*339 u_multiplier_LODy_z[1]
*340 u_multiplier_LODy_z[2]
*341 u_multiplier_LODy_z[3]
*342 u_multiplier_LODy_z[4]
*343 u_multiplier_LODy_z[5]
*344 u_multiplier_LODy_z[6]
*345 u_multiplier_LODy_z[7]
*346 u_multiplier_NOD__11_
*347 u_multiplier_NOD__12_
*348 u_multiplier_NOD__13_
*349 u_multiplier_NOD_nod_basic_unit15__5_
*350 u_multiplier_NOD_nod_cels_2_Nod_bits_02
*351 u_multiplier_NOD_nod_cels_2_Nod_bits_03
*352 u_multiplier_NOD_nod_cels_2_Nod_bits_nod_basic_unit_5
*353 u_multiplier_NOD_nod_cels_2_Nod_bits_tmp1
*354 u_multiplier_NOD_nod_cels_3_Nod_bits_02
*355 u_multiplier_NOD_nod_cels_3_Nod_bits_03
*356 u_multiplier_NOD_nod_cels_3_Nod_bits_nod_basic_unit_5
*357 u_multiplier_NOD_nod_cels_3_Nod_bits_tmp1
*358 u_multiplier_NOD_nod_cels_4_Nod_bits_02
*359 u_multiplier_NOD_nod_cels_4_Nod_bits_03
*360 u_multiplier_NOD_nod_cels_4_Nod_bits_nod_basic_unit_5
*361 u_multiplier_NOD_nod_cels_4_Nod_bits_tmp1
*362 u_multiplier_NOD_nod_cels_5_Nod_bits_02
*363 u_multiplier_NOD_nod_cels_5_Nod_bits_03
*364 u_multiplier_NOD_nod_cels_5_Nod_bits_nod_basic_unit_5
*365 u_multiplier_NOD_nod_cels_5_Nod_bits_tmp1
*366 u_multiplier_NOD_t_in[1]
*367 u_multiplier_NOD_t_in[2]
*368 u_multiplier_NOD_t_in[3]
*369 u_multiplier_NOD_t_in[4]
*370 u_multiplier_NOD_Q1[0]
*371 u_multiplier_NOD_Q1[1]
*372 u_multiplier_NOD_Q1[2]
*373 u_multiplier_NOD_Q1[3]
*374 u_multiplier_NOD_Q1[4]
*375 u_multiplier_NOD_Q1[5]
*376 u_multiplier_NOD_Q1[6]
*377 u_multiplier_NOD_Q1[7]
*378 u_multiplier__0345_
*379 u_multiplier__0346_
*380 u_multiplier__0347_
*381 u_multiplier__0348_
*382 u_multiplier__0349_
*383 u_multiplier__0350_
*384 u_multiplier__0351_
*385 u_multiplier__0352_
*386 u_multiplier__0353_
*387 u_multiplier__0354_
*388 u_multiplier__0355_
*389 u_multiplier__0392_
*390 u_multiplier__0393_
*391 u_multiplier__0394_
*392 u_multiplier__0395_
*393 u_multiplier__0396_
*394 u_multiplier__0397_
*395 u_multiplier__0398_
*396 u_multiplier__0399_
*397 u_multiplier__0400_
*398 u_multiplier__0401_
*399 u_multiplier__0402_
*400 u_multiplier__0403_
*401 u_multiplier__0404_
*402 u_multiplier__0405_
*403 u_multiplier__0406_
*404 u_multiplier__0407_
*405 u_multiplier__0408_
*406 u_multiplier__0409_
*407 u_multiplier__0410_
*408 u_multiplier__0411_
*409 u_multiplier__0412_
*410 u_multiplier__0413_
*411 u_multiplier__0414_
*412 u_multiplier__0415_
*413 u_multiplier__0416_
*414 u_multiplier__0417_
*415 u_multiplier__0418_
*416 u_multiplier__0419_
*417 u_multiplier__0420_
*418 u_multiplier__0421_
*419 u_multiplier__0422_
*420 u_multiplier__0423_
*421 u_multiplier__0424_
*422 u_multiplier__0425_
*423 u_multiplier__0426_
*424 u_multiplier__0427_
*425 u_multiplier__0428_
*426 u_multiplier__0429_
*427 u_multiplier__0430_
*428 u_multiplier__0431_
*429 u_multiplier__0432_
*430 u_multiplier__0433_
*431 u_multiplier__0434_
*432 u_multiplier__0435_
*433 u_multiplier__0436_
*434 u_multiplier__0437_
*435 u_multiplier__0438_
*436 u_multiplier__0439_
*437 u_multiplier__0440_
*438 u_multiplier__0441_
*439 u_multiplier__0442_
*440 u_multiplier__0443_
*441 u_multiplier__0444_
*442 u_multiplier__0445_
*443 u_multiplier__0446_
*444 u_multiplier__0447_
*445 u_multiplier__0448_
*446 u_multiplier__0449_
*447 u_multiplier__0450_
*448 u_multiplier__0451_
*449 u_multiplier__0452_
*450 u_multiplier__0453_
*451 u_multiplier__0454_
*452 u_multiplier__0455_
*453 u_multiplier__0456_
*454 u_multiplier__0457_
*455 u_multiplier__0458_
*456 u_multiplier__0459_
*457 u_multiplier__0460_
*458 u_multiplier__0461_
*459 u_multiplier__0462_
*460 u_multiplier__0463_
*461 u_multiplier__0464_
*462 u_multiplier__0465_
*463 u_multiplier__0466_
*464 u_multiplier__0467_
*465 u_multiplier__0468_
*466 u_multiplier__0469_
*467 u_multiplier__0470_
*468 u_multiplier__0471_
*469 u_multiplier__0472_
*470 u_multiplier__0473_
*471 u_multiplier__0474_
*472 u_multiplier__0475_
*473 u_multiplier__0476_
*474 u_multiplier__0477_
*475 u_multiplier__0478_
*476 u_multiplier__0479_
*477 u_multiplier__0480_
*478 u_multiplier__0481_
*479 u_multiplier__0482_
*480 u_multiplier__0483_
*481 u_multiplier__0484_
*482 u_multiplier__0485_
*483 u_multiplier__0486_
*484 u_multiplier__0487_
*485 u_multiplier__0488_
*486 u_multiplier__0489_
*487 u_multiplier__0490_
*488 u_multiplier__0491_
*489 u_multiplier__0492_
*490 u_multiplier__0493_
*491 u_multiplier__0494_
*492 u_multiplier__0495_
*493 u_multiplier__0496_
*494 u_multiplier__0497_
*495 u_multiplier__0498_
*496 u_multiplier__0499_
*497 u_multiplier__0500_
*498 u_multiplier__0501_
*499 u_multiplier__0502_
*500 u_multiplier__0503_
*501 u_multiplier__0504_
*502 u_multiplier__0505_
*503 u_multiplier__0506_
*504 u_multiplier__0507_
*505 u_multiplier__0508_
*506 u_multiplier__0509_
*507 u_multiplier__0510_
*508 u_multiplier__0511_
*509 u_multiplier__0512_
*510 u_multiplier__0513_
*511 u_multiplier__0514_
*512 u_multiplier__0515_
*513 u_multiplier__0516_
*514 u_multiplier__0517_
*515 u_multiplier__0518_
*516 u_multiplier__0519_
*517 u_multiplier__0520_
*518 u_multiplier__0521_
*519 u_multiplier__0522_
*520 u_multiplier__0523_
*521 u_multiplier__0524_
*522 u_multiplier__0525_
*523 u_multiplier__0526_
*524 u_multiplier__0527_
*525 u_multiplier__0528_
*526 u_multiplier__0529_
*527 u_multiplier__0530_
*528 u_multiplier__0531_
*529 u_multiplier__0532_
*530 u_multiplier__0533_
*531 u_multiplier__0534_
*532 u_multiplier__0535_
*533 u_multiplier__0536_
*534 u_multiplier__0537_
*535 u_multiplier__0538_
*536 u_multiplier__0539_
*537 u_multiplier__0540_
*538 u_multiplier__0541_
*539 u_multiplier__0542_
*540 u_multiplier__0543_
*541 u_multiplier__0544_
*542 u_multiplier__0545_
*543 u_multiplier__0546_
*544 u_multiplier__0547_
*545 u_multiplier__0548_
*546 u_multiplier__0549_
*547 u_multiplier__0550_
*548 u_multiplier__0551_
*549 u_multiplier__0552_
*550 u_multiplier__0553_
*551 u_multiplier__0554_
*552 u_multiplier__0555_
*553 u_multiplier__0556_
*554 u_multiplier__0557_
*555 u_multiplier__0558_
*556 u_multiplier__0559_
*557 u_multiplier__0560_
*558 u_multiplier__0561_
*559 u_multiplier__0562_
*560 u_multiplier__0563_
*561 u_multiplier__0564_
*562 u_multiplier__0565_
*563 u_multiplier__0566_
*564 u_multiplier__0567_
*565 u_multiplier__0568_
*566 u_multiplier__0569_
*567 u_multiplier__0570_
*568 u_multiplier__0571_
*569 u_multiplier__0572_
*570 u_multiplier__0573_
*571 u_multiplier__0574_
*572 u_multiplier__0575_
*573 u_multiplier__0576_
*574 u_multiplier__0577_
*575 u_multiplier__0578_
*576 u_multiplier__0579_
*577 u_multiplier__0580_
*578 u_multiplier__0581_
*579 u_multiplier__0582_
*580 u_multiplier__0583_
*581 u_multiplier__0584_
*582 u_multiplier__0585_
*583 u_multiplier__0586_
*584 u_multiplier__0587_
*585 u_multiplier__0588_
*586 u_multiplier__0589_
*587 u_multiplier__0590_
*588 u_multiplier__0591_
*589 u_multiplier__0592_
*590 u_multiplier__0593_
*591 u_multiplier__0594_
*592 u_multiplier__0595_
*593 u_multiplier__0596_
*594 u_multiplier__0597_
*595 u_multiplier__0598_
*596 u_multiplier__0599_
*597 u_multiplier__0600_
*598 u_multiplier__0601_
*599 u_multiplier__0602_
*600 u_multiplier__0603_
*601 u_multiplier__0604_
*602 u_multiplier__0605_
*603 u_multiplier__0606_
*604 u_multiplier__0607_
*605 u_multiplier__0608_
*606 u_multiplier__0609_
*607 u_multiplier__0610_
*608 u_multiplier__0611_
*609 u_multiplier__0612_
*610 u_multiplier__0613_
*611 u_multiplier__0614_
*612 u_multiplier__0615_
*613 u_multiplier__0616_
*614 u_multiplier__0617_
*615 u_multiplier__0618_
*616 u_multiplier__0619_
*617 u_multiplier__0620_
*618 u_multiplier__0621_
*619 u_multiplier__0622_
*620 u_multiplier__0623_
*621 u_multiplier__0624_
*622 u_multiplier__0625_
*623 u_multiplier__0626_
*624 u_multiplier__0627_
*625 u_multiplier__0628_
*626 u_multiplier__0629_
*627 u_multiplier__0630_
*628 u_multiplier__0631_
*629 u_multiplier__0632_
*630 u_multiplier__0633_
*631 u_multiplier__0634_
*632 u_multiplier__0635_
*633 u_multiplier__0636_
*634 u_multiplier__0637_
*635 u_multiplier__0638_
*636 u_multiplier__0639_
*637 u_multiplier__0640_
*638 u_multiplier__0641_
*639 u_multiplier__0642_
*640 u_multiplier__0643_
*641 u_multiplier__0644_
*642 u_multiplier__0645_
*643 u_multiplier__0646_
*644 u_multiplier__0647_
*645 u_multiplier__0648_
*646 u_multiplier__0649_
*647 u_multiplier__0650_
*648 u_multiplier__0651_
*649 u_multiplier__0652_
*650 u_multiplier__0653_
*651 u_multiplier__0654_
*652 u_multiplier__0655_
*653 u_multiplier__0656_
*654 u_multiplier__0657_
*655 u_multiplier__0658_
*656 u_multiplier__0659_
*657 u_multiplier__0660_
*658 u_multiplier__0661_
*659 u_multiplier__0662_
*660 u_multiplier__0663_
*661 u_multiplier__0664_
*662 u_multiplier__0665_
*663 u_multiplier__0666_
*664 u_multiplier__0667_
*665 u_multiplier__0668_
*666 u_multiplier__0669_
*667 u_multiplier__0670_
*668 u_multiplier__0671_
*669 u_multiplier__0672_
*670 u_multiplier__0673_
*671 u_multiplier__0674_
*672 u_multiplier__0675_
*673 u_multiplier__0676_
*674 u_multiplier__0677_
*675 u_multiplier__0678_
*676 u_multiplier__0679_
*677 u_multiplier__0680_
*678 u_multiplier__0681_
*679 u_multiplier__0682_
*680 u_multiplier__0683_
*681 u_multiplier__0684_
*682 u_multiplier__0685_
*683 u_multiplier__0686_
*684 u_multiplier__0687_
*685 u_multiplier__0688_
*686 u_multiplier__0689_
*687 u_multiplier__0690_
*688 u_multiplier__0691_
*689 u_multiplier__0692_
*690 u_multiplier__0693_
*691 u_multiplier__0694_
*692 u_multiplier__0695_
*693 u_multiplier__0696_
*694 u_multiplier__0697_
*695 u_multiplier__0698_
*696 u_multiplier__0699_
*697 u_multiplier__0700_
*698 u_multiplier__0701_
*699 u_multiplier__0702_
*700 u_multiplier__0703_
*701 u_multiplier__0704_
*702 u_multiplier__0705_
*703 u_multiplier__0706_
*704 u_multiplier__0707_
*705 u_multiplier__0708_
*706 u_multiplier__0709_
*707 u_multiplier__0710_
*708 u_multiplier__0711_
*709 u_multiplier__0712_
*710 u_multiplier__0713_
*711 u_multiplier__0714_
*712 u_multiplier__0715_
*713 u_multiplier__0716_
*714 u_multiplier__0717_
*715 u_multiplier__0718_
*716 u_multiplier__0719_
*717 u_multiplier__0720_
*718 u_multiplier__0721_
*719 u_multiplier__0722_
*720 u_multiplier__0723_
*721 u_multiplier_code_x[0]
*722 u_multiplier_code_x[1]
*723 u_multiplier_code_x[2]
*724 u_multiplier_code_y[0]
*725 u_multiplier_code_y[1]
*726 u_multiplier_code_y[2]
*727 u_multiplier_dec__34_
*728 u_multiplier_dec__35_
*729 u_multiplier_dec__36_
*730 u_multiplier_dec__37_
*731 u_multiplier_dec__38_
*732 u_multiplier_dec__39_
*733 u_multiplier_dec_out[0]
*734 u_multiplier_dec_out[10]
*735 u_multiplier_dec_out[11]
*736 u_multiplier_dec_out[12]
*737 u_multiplier_dec_out[13]
*738 u_multiplier_dec_out[14]
*739 u_multiplier_dec_out[15]
*740 u_multiplier_dec_out[1]
*741 u_multiplier_dec_out[2]
*742 u_multiplier_dec_out[3]
*743 u_multiplier_dec_out[4]
*744 u_multiplier_dec_out[5]
*745 u_multiplier_dec_out[6]
*746 u_multiplier_dec_out[7]
*747 u_multiplier_dec_out[8]
*748 u_multiplier_dec_out[9]
*749 u_multiplier_kx[0]
*750 u_multiplier_kx[1]
*751 u_multiplier_kx[2]
*752 u_multiplier_kx[3]
*753 u_multiplier_kx[4]
*754 u_multiplier_kx[5]
*755 u_multiplier_kx[6]
*756 u_multiplier_kx[7]
*757 u_multiplier_ky[0]
*758 u_multiplier_ky[1]
*759 u_multiplier_ky[2]
*760 u_multiplier_ky[3]
*761 u_multiplier_ky[4]
*762 u_multiplier_ky[5]
*763 u_multiplier_ky[6]
*764 u_multiplier_ky[7]
*765 u_multiplier_zero_x
*766 u_multiplier_zero_y
*767 FILLER_0_1
*768 FILLER_0_103
*769 FILLER_0_135
*770 FILLER_0_151
*771 FILLER_0_159
*772 FILLER_0_161
*773 FILLER_0_165
*774 FILLER_0_197
*775 FILLER_0_229
*776 FILLER_0_245
*777 FILLER_0_253
*778 FILLER_0_255
*779 FILLER_0_259
*780 FILLER_0_275
*781 FILLER_0_283
*782 FILLER_0_287
*783 FILLER_0_289
*784 FILLER_0_294
*785 FILLER_0_326
*786 FILLER_0_342
*787 FILLER_0_350
*788 FILLER_0_355
*789 FILLER_0_387
*790 FILLER_0_40
*791 FILLER_0_419
*792 FILLER_0_435
*793 FILLER_0_440
*794 FILLER_0_448
*795 FILLER_0_455
*796 FILLER_0_487
*797 FILLER_0_519
*798 FILLER_0_535
*799 FILLER_0_542
*800 FILLER_0_56
*801 FILLER_0_574
*802 FILLER_0_606
*803 FILLER_0_622
*804 FILLER_0_630
*805 FILLER_0_632
*806 FILLER_0_639
*807 FILLER_0_64
*808 FILLER_0_655
*809 FILLER_0_657
*810 FILLER_0_71
*811 FILLER_0_8
*812 FILLER_10_1
*813 FILLER_10_113
*814 FILLER_10_117
*815 FILLER_10_33
*816 FILLER_10_516
*817 FILLER_10_520
*818 FILLER_10_525
*819 FILLER_10_539
*820 FILLER_10_555
*821 FILLER_10_566
*822 FILLER_10_574
*823 FILLER_10_578
*824 FILLER_10_584
*825 FILLER_10_595
*826 FILLER_10_608
*827 FILLER_10_612
*828 FILLER_10_614
*829 FILLER_10_619
*830 FILLER_10_632
*831 FILLER_10_65
*832 FILLER_10_653
*833 FILLER_10_657
*834 FILLER_10_97
*835 FILLER_11_1
*836 FILLER_11_113
*837 FILLER_11_117
*838 FILLER_11_33
*839 FILLER_11_516
*840 FILLER_11_529
*841 FILLER_11_538
*842 FILLER_11_542
*843 FILLER_11_553
*844 FILLER_11_567
*845 FILLER_11_575
*846 FILLER_11_579
*847 FILLER_11_585
*848 FILLER_11_593
*849 FILLER_11_595
*850 FILLER_11_601
*851 FILLER_11_614
*852 FILLER_11_620
*853 FILLER_11_632
*854 FILLER_11_640
*855 FILLER_11_647
*856 FILLER_11_65
*857 FILLER_11_653
*858 FILLER_11_657
*859 FILLER_11_97
*860 FILLER_12_1
*861 FILLER_12_113
*862 FILLER_12_117
*863 FILLER_12_33
*864 FILLER_12_516
*865 FILLER_12_522
*866 FILLER_12_531
*867 FILLER_12_539
*868 FILLER_12_550
*869 FILLER_12_558
*870 FILLER_12_560
*871 FILLER_12_563
*872 FILLER_12_570
*873 FILLER_12_578
*874 FILLER_12_587
*875 FILLER_12_596
*876 FILLER_12_604
*877 FILLER_12_614
*878 FILLER_12_622
*879 FILLER_12_625
*880 FILLER_12_633
*881 FILLER_12_644
*882 FILLER_12_648
*883 FILLER_12_65
*884 FILLER_12_650
*885 FILLER_12_654
*886 FILLER_12_97
*887 FILLER_13_1
*888 FILLER_13_113
*889 FILLER_13_117
*890 FILLER_13_33
*891 FILLER_13_516
*892 FILLER_13_524
*893 FILLER_13_531
*894 FILLER_13_537
*895 FILLER_13_551
*896 FILLER_13_564
*897 FILLER_13_572
*898 FILLER_13_582
*899 FILLER_13_600
*900 FILLER_13_604
*901 FILLER_13_606
*902 FILLER_13_616
*903 FILLER_13_620
*904 FILLER_13_624
*905 FILLER_13_632
*906 FILLER_13_636
*907 FILLER_13_641
*908 FILLER_13_648
*909 FILLER_13_65
*910 FILLER_13_654
*911 FILLER_13_97
*912 FILLER_14_1
*913 FILLER_14_113
*914 FILLER_14_117
*915 FILLER_14_33
*916 FILLER_14_516
*917 FILLER_14_522
*918 FILLER_14_538
*919 FILLER_14_548
*920 FILLER_14_564
*921 FILLER_14_566
*922 FILLER_14_570
*923 FILLER_14_585
*924 FILLER_14_600
*925 FILLER_14_616
*926 FILLER_14_624
*927 FILLER_14_632
*928 FILLER_14_649
*929 FILLER_14_65
*930 FILLER_14_657
*931 FILLER_14_97
*932 FILLER_15_1
*933 FILLER_15_113
*934 FILLER_15_117
*935 FILLER_15_33
*936 FILLER_15_516
*937 FILLER_15_529
*938 FILLER_15_538
*939 FILLER_15_546
*940 FILLER_15_557
*941 FILLER_15_589
*942 FILLER_15_595
*943 FILLER_15_611
*944 FILLER_15_619
*945 FILLER_15_622
*946 FILLER_15_633
*947 FILLER_15_65
*948 FILLER_15_650
*949 FILLER_15_97
*950 FILLER_16_1
*951 FILLER_16_113
*952 FILLER_16_117
*953 FILLER_16_33
*954 FILLER_16_516
*955 FILLER_16_527
*956 FILLER_16_540
*957 FILLER_16_557
*958 FILLER_16_565
*959 FILLER_16_572
*960 FILLER_16_576
*961 FILLER_16_595
*962 FILLER_16_612
*963 FILLER_16_620
*964 FILLER_16_624
*965 FILLER_16_629
*966 FILLER_16_646
*967 FILLER_16_65
*968 FILLER_16_654
*969 FILLER_16_97
*970 FILLER_17_1
*971 FILLER_17_113
*972 FILLER_17_117
*973 FILLER_17_33
*974 FILLER_17_516
*975 FILLER_17_524
*976 FILLER_17_528
*977 FILLER_17_530
*978 FILLER_17_536
*979 FILLER_17_540
*980 FILLER_17_555
*981 FILLER_17_568
*982 FILLER_17_576
*983 FILLER_17_595
*984 FILLER_17_608
*985 FILLER_17_612
*986 FILLER_17_622
*987 FILLER_17_626
*988 FILLER_17_628
*989 FILLER_17_634
*990 FILLER_17_645
*991 FILLER_17_65
*992 FILLER_17_652
*993 FILLER_17_656
*994 FILLER_17_97
*995 FILLER_18_1
*996 FILLER_18_113
*997 FILLER_18_117
*998 FILLER_18_33
*999 FILLER_18_516
*1000 FILLER_18_520
*1001 FILLER_18_525
*1002 FILLER_18_533
*1003 FILLER_18_550
*1004 FILLER_18_556
*1005 FILLER_18_560
*1006 FILLER_18_568
*1007 FILLER_18_591
*1008 FILLER_18_595
*1009 FILLER_18_605
*1010 FILLER_18_609
*1011 FILLER_18_618
*1012 FILLER_18_629
*1013 FILLER_18_635
*1014 FILLER_18_643
*1015 FILLER_18_649
*1016 FILLER_18_65
*1017 FILLER_18_657
*1018 FILLER_18_97
*1019 FILLER_19_1
*1020 FILLER_19_113
*1021 FILLER_19_117
*1022 FILLER_19_33
*1023 FILLER_19_516
*1024 FILLER_19_523
*1025 FILLER_19_527
*1026 FILLER_19_529
*1027 FILLER_19_535
*1028 FILLER_19_539
*1029 FILLER_19_541
*1030 FILLER_19_552
*1031 FILLER_19_568
*1032 FILLER_19_579
*1033 FILLER_19_595
*1034 FILLER_19_603
*1035 FILLER_19_614
*1036 FILLER_19_627
*1037 FILLER_19_631
*1038 FILLER_19_636
*1039 FILLER_19_643
*1040 FILLER_19_65
*1041 FILLER_19_651
*1042 FILLER_19_655
*1043 FILLER_19_657
*1044 FILLER_19_97
*1045 FILLER_1_1
*1046 FILLER_1_129
*1047 FILLER_1_161
*1048 FILLER_1_193
*1049 FILLER_1_225
*1050 FILLER_1_257
*1051 FILLER_1_265
*1052 FILLER_1_270
*1053 FILLER_1_293
*1054 FILLER_1_316
*1055 FILLER_1_33
*1056 FILLER_1_332
*1057 FILLER_1_337
*1058 FILLER_1_360
*1059 FILLER_1_392
*1060 FILLER_1_408
*1061 FILLER_1_414
*1062 FILLER_1_422
*1063 FILLER_1_426
*1064 FILLER_1_432
*1065 FILLER_1_440
*1066 FILLER_1_461
*1067 FILLER_1_493
*1068 FILLER_1_525
*1069 FILLER_1_557
*1070 FILLER_1_589
*1071 FILLER_1_621
*1072 FILLER_1_65
*1073 FILLER_1_653
*1074 FILLER_1_657
*1075 FILLER_1_97
*1076 FILLER_20_1
*1077 FILLER_20_113
*1078 FILLER_20_117
*1079 FILLER_20_33
*1080 FILLER_20_516
*1081 FILLER_20_525
*1082 FILLER_20_532
*1083 FILLER_20_536
*1084 FILLER_20_546
*1085 FILLER_20_562
*1086 FILLER_20_570
*1087 FILLER_20_574
*1088 FILLER_20_583
*1089 FILLER_20_594
*1090 FILLER_20_602
*1091 FILLER_20_611
*1092 FILLER_20_624
*1093 FILLER_20_632
*1094 FILLER_20_640
*1095 FILLER_20_65
*1096 FILLER_20_651
*1097 FILLER_20_655
*1098 FILLER_20_657
*1099 FILLER_20_97
*1100 FILLER_21_1
*1101 FILLER_21_113
*1102 FILLER_21_117
*1103 FILLER_21_33
*1104 FILLER_21_516
*1105 FILLER_21_534
*1106 FILLER_21_542
*1107 FILLER_21_551
*1108 FILLER_21_562
*1109 FILLER_21_577
*1110 FILLER_21_588
*1111 FILLER_21_599
*1112 FILLER_21_607
*1113 FILLER_21_611
*1114 FILLER_21_619
*1115 FILLER_21_623
*1116 FILLER_21_625
*1117 FILLER_21_633
*1118 FILLER_21_644
*1119 FILLER_21_65
*1120 FILLER_21_651
*1121 FILLER_21_655
*1122 FILLER_21_657
*1123 FILLER_21_97
*1124 FILLER_22_1
*1125 FILLER_22_105
*1126 FILLER_22_113
*1127 FILLER_22_117
*1128 FILLER_22_41
*1129 FILLER_22_516
*1130 FILLER_22_532
*1131 FILLER_22_540
*1132 FILLER_22_549
*1133 FILLER_22_560
*1134 FILLER_22_568
*1135 FILLER_22_573
*1136 FILLER_22_580
*1137 FILLER_22_584
*1138 FILLER_22_592
*1139 FILLER_22_599
*1140 FILLER_22_606
*1141 FILLER_22_622
*1142 FILLER_22_626
*1143 FILLER_22_630
*1144 FILLER_22_637
*1145 FILLER_22_648
*1146 FILLER_22_656
*1147 FILLER_22_73
*1148 FILLER_22_9
*1149 FILLER_23_1
*1150 FILLER_23_113
*1151 FILLER_23_117
*1152 FILLER_23_33
*1153 FILLER_23_516
*1154 FILLER_23_532
*1155 FILLER_23_536
*1156 FILLER_23_545
*1157 FILLER_23_549
*1158 FILLER_23_557
*1159 FILLER_23_561
*1160 FILLER_23_563
*1161 FILLER_23_571
*1162 FILLER_23_582
*1163 FILLER_23_593
*1164 FILLER_23_606
*1165 FILLER_23_614
*1166 FILLER_23_618
*1167 FILLER_23_620
*1168 FILLER_23_626
*1169 FILLER_23_634
*1170 FILLER_23_640
*1171 FILLER_23_65
*1172 FILLER_23_651
*1173 FILLER_23_655
*1174 FILLER_23_657
*1175 FILLER_23_97
*1176 FILLER_24_1
*1177 FILLER_24_105
*1178 FILLER_24_109
*1179 FILLER_24_114
*1180 FILLER_24_33
*1181 FILLER_24_516
*1182 FILLER_24_539
*1183 FILLER_24_571
*1184 FILLER_24_575
*1185 FILLER_24_584
*1186 FILLER_24_592
*1187 FILLER_24_599
*1188 FILLER_24_615
*1189 FILLER_24_617
*1190 FILLER_24_622
*1191 FILLER_24_633
*1192 FILLER_24_644
*1193 FILLER_24_65
*1194 FILLER_24_651
*1195 FILLER_24_655
*1196 FILLER_24_657
*1197 FILLER_24_97
*1198 FILLER_25_1
*1199 FILLER_25_105
*1200 FILLER_25_114
*1201 FILLER_25_33
*1202 FILLER_25_516
*1203 FILLER_25_532
*1204 FILLER_25_534
*1205 FILLER_25_538
*1206 FILLER_25_549
*1207 FILLER_25_560
*1208 FILLER_25_568
*1209 FILLER_25_576
*1210 FILLER_25_580
*1211 FILLER_25_591
*1212 FILLER_25_598
*1213 FILLER_25_614
*1214 FILLER_25_619
*1215 FILLER_25_632
*1216 FILLER_25_640
*1217 FILLER_25_648
*1218 FILLER_25_65
*1219 FILLER_25_654
*1220 FILLER_25_97
*1221 FILLER_26_1
*1222 FILLER_26_113
*1223 FILLER_26_117
*1224 FILLER_26_33
*1225 FILLER_26_516
*1226 FILLER_26_524
*1227 FILLER_26_532
*1228 FILLER_26_536
*1229 FILLER_26_541
*1230 FILLER_26_545
*1231 FILLER_26_549
*1232 FILLER_26_556
*1233 FILLER_26_563
*1234 FILLER_26_570
*1235 FILLER_26_574
*1236 FILLER_26_576
*1237 FILLER_26_582
*1238 FILLER_26_591
*1239 FILLER_26_607
*1240 FILLER_26_615
*1241 FILLER_26_617
*1242 FILLER_26_627
*1243 FILLER_26_635
*1244 FILLER_26_639
*1245 FILLER_26_643
*1246 FILLER_26_65
*1247 FILLER_26_654
*1248 FILLER_26_97
*1249 FILLER_27_1
*1250 FILLER_27_113
*1251 FILLER_27_117
*1252 FILLER_27_33
*1253 FILLER_27_516
*1254 FILLER_27_532
*1255 FILLER_27_536
*1256 FILLER_27_541
*1257 FILLER_27_552
*1258 FILLER_27_563
*1259 FILLER_27_574
*1260 FILLER_27_582
*1261 FILLER_27_586
*1262 FILLER_27_596
*1263 FILLER_27_603
*1264 FILLER_27_610
*1265 FILLER_27_619
*1266 FILLER_27_628
*1267 FILLER_27_636
*1268 FILLER_27_642
*1269 FILLER_27_65
*1270 FILLER_27_651
*1271 FILLER_27_655
*1272 FILLER_27_657
*1273 FILLER_27_97
*1274 FILLER_28_1
*1275 FILLER_28_113
*1276 FILLER_28_117
*1277 FILLER_28_33
*1278 FILLER_28_516
*1279 FILLER_28_532
*1280 FILLER_28_536
*1281 FILLER_28_538
*1282 FILLER_28_545
*1283 FILLER_28_554
*1284 FILLER_28_565
*1285 FILLER_28_569
*1286 FILLER_28_576
*1287 FILLER_28_580
*1288 FILLER_28_591
*1289 FILLER_28_605
*1290 FILLER_28_616
*1291 FILLER_28_624
*1292 FILLER_28_630
*1293 FILLER_28_638
*1294 FILLER_28_65
*1295 FILLER_28_651
*1296 FILLER_28_655
*1297 FILLER_28_657
*1298 FILLER_28_97
*1299 FILLER_29_1
*1300 FILLER_29_113
*1301 FILLER_29_117
*1302 FILLER_29_33
*1303 FILLER_29_516
*1304 FILLER_29_532
*1305 FILLER_29_536
*1306 FILLER_29_545
*1307 FILLER_29_556
*1308 FILLER_29_563
*1309 FILLER_29_567
*1310 FILLER_29_569
*1311 FILLER_29_574
*1312 FILLER_29_582
*1313 FILLER_29_586
*1314 FILLER_29_588
*1315 FILLER_29_591
*1316 FILLER_29_605
*1317 FILLER_29_609
*1318 FILLER_29_618
*1319 FILLER_29_635
*1320 FILLER_29_646
*1321 FILLER_29_65
*1322 FILLER_29_653
*1323 FILLER_29_657
*1324 FILLER_29_97
*1325 FILLER_2_1
*1326 FILLER_2_129
*1327 FILLER_2_161
*1328 FILLER_2_193
*1329 FILLER_2_225
*1330 FILLER_2_257
*1331 FILLER_2_289
*1332 FILLER_2_305
*1333 FILLER_2_317
*1334 FILLER_2_33
*1335 FILLER_2_340
*1336 FILLER_2_344
*1337 FILLER_2_346
*1338 FILLER_2_366
*1339 FILLER_2_373
*1340 FILLER_2_380
*1341 FILLER_2_396
*1342 FILLER_2_404
*1343 FILLER_2_427
*1344 FILLER_2_431
*1345 FILLER_2_433
*1346 FILLER_2_453
*1347 FILLER_2_457
*1348 FILLER_2_462
*1349 FILLER_2_469
*1350 FILLER_2_501
*1351 FILLER_2_533
*1352 FILLER_2_565
*1353 FILLER_2_581
*1354 FILLER_2_584
*1355 FILLER_2_616
*1356 FILLER_2_624
*1357 FILLER_2_628
*1358 FILLER_2_630
*1359 FILLER_2_632
*1360 FILLER_2_648
*1361 FILLER_2_65
*1362 FILLER_2_650
*1363 FILLER_2_654
*1364 FILLER_2_97
*1365 FILLER_30_1
*1366 FILLER_30_113
*1367 FILLER_30_117
*1368 FILLER_30_33
*1369 FILLER_30_516
*1370 FILLER_30_532
*1371 FILLER_30_542
*1372 FILLER_30_553
*1373 FILLER_30_560
*1374 FILLER_30_567
*1375 FILLER_30_593
*1376 FILLER_30_610
*1377 FILLER_30_625
*1378 FILLER_30_629
*1379 FILLER_30_639
*1380 FILLER_30_65
*1381 FILLER_30_652
*1382 FILLER_30_656
*1383 FILLER_30_97
*1384 FILLER_31_1
*1385 FILLER_31_113
*1386 FILLER_31_117
*1387 FILLER_31_33
*1388 FILLER_31_516
*1389 FILLER_31_525
*1390 FILLER_31_543
*1391 FILLER_31_554
*1392 FILLER_31_561
*1393 FILLER_31_569
*1394 FILLER_31_573
*1395 FILLER_31_579
*1396 FILLER_31_586
*1397 FILLER_31_593
*1398 FILLER_31_600
*1399 FILLER_31_616
*1400 FILLER_31_624
*1401 FILLER_31_628
*1402 FILLER_31_637
*1403 FILLER_31_646
*1404 FILLER_31_65
*1405 FILLER_31_652
*1406 FILLER_31_656
*1407 FILLER_31_97
*1408 FILLER_32_1
*1409 FILLER_32_113
*1410 FILLER_32_117
*1411 FILLER_32_33
*1412 FILLER_32_516
*1413 FILLER_32_524
*1414 FILLER_32_531
*1415 FILLER_32_535
*1416 FILLER_32_546
*1417 FILLER_32_553
*1418 FILLER_32_560
*1419 FILLER_32_564
*1420 FILLER_32_573
*1421 FILLER_32_584
*1422 FILLER_32_592
*1423 FILLER_32_600
*1424 FILLER_32_616
*1425 FILLER_32_618
*1426 FILLER_32_622
*1427 FILLER_32_629
*1428 FILLER_32_636
*1429 FILLER_32_647
*1430 FILLER_32_65
*1431 FILLER_32_654
*1432 FILLER_32_97
*1433 FILLER_33_1
*1434 FILLER_33_113
*1435 FILLER_33_117
*1436 FILLER_33_33
*1437 FILLER_33_516
*1438 FILLER_33_532
*1439 FILLER_33_545
*1440 FILLER_33_562
*1441 FILLER_33_566
*1442 FILLER_33_570
*1443 FILLER_33_581
*1444 FILLER_33_591
*1445 FILLER_33_599
*1446 FILLER_33_601
*1447 FILLER_33_607
*1448 FILLER_33_616
*1449 FILLER_33_624
*1450 FILLER_33_632
*1451 FILLER_33_641
*1452 FILLER_33_65
*1453 FILLER_33_650
*1454 FILLER_33_97
*1455 FILLER_34_1
*1456 FILLER_34_105
*1457 FILLER_34_113
*1458 FILLER_34_117
*1459 FILLER_34_41
*1460 FILLER_34_516
*1461 FILLER_34_520
*1462 FILLER_34_526
*1463 FILLER_34_534
*1464 FILLER_34_542
*1465 FILLER_34_553
*1466 FILLER_34_559