*SPEF "ieee 1481-1999"
*DESIGN "sram_multiplier_system"
*DATE "22:39:59 Wednesday October 01, 2025"
*VENDOR "The OpenROAD Project"
*PROGRAM "OpenROAD"
*VERSION "v2.0-17598-ga008522d8"
*DESIGN_FLOW "NAME_SCOPE LOCAL" "PIN_CAP NONE"
*DIVIDER /
*DELIMITER :
*BUS_DELIMITER []
*T_UNIT 1 NS
*C_UNIT 1 PF
*R_UNIT 1 OHM
*L_UNIT 1 HENRY

*NAME_MAP
*1 clk
*2 data_in[0]
*3 data_in[1]
*4 data_in[2]
*5 data_in[3]
*6 data_in[4]
*7 data_in[5]
*8 data_in[6]
*9 data_in[7]
*10 data_out[0]
*11 data_out[10]
*12 data_out[11]
*13 data_out[12]
*14 data_out[13]
*15 data_out[14]
*16 data_out[15]
*17 data_out[1]
*18 data_out[2]
*19 data_out[3]
*20 data_out[4]
*21 data_out[5]
*22 data_out[6]
*23 data_out[7]
*24 data_out[8]
*25 data_out[9]
*26 curr_state[1]
*27 init_enable
*28 pe_ce
*29 rst_n
*30 valid_reg_out
*33 _006_
*34 _007_
*35 _008_
*36 _009_
*37 _010_
*38 _011_
*39 _012_
*40 _013_
*41 _014_
*42 _015_
*43 _016_
*44 _017_
*45 _018_
*46 _019_
*47 _020_
*48 _021_
*49 _022_
*50 _023_
*51 _024_
*52 _025_
*53 _026_
*54 _027_
*55 _028_
*56 _029_
*57 _030_
*58 _031_
*59 _032_
*60 _033_
*61 _034_
*62 _035_
*63 _036_
*64 _037_
*65 _038_
*66 _039_
*67 _040_
*68 _041_
*69 _042_
*70 _043_
*71 _044_
*72 _045_
*73 _046_
*74 _047_
*75 _048_
*76 _049_
*77 _050_
*78 _051_
*79 _081_
*80 _082_
*81 _083_
*82 _084_
*83 _085_
*84 _086_
*85 _087_
*86 _088_
*87 _089_
*88 _090_
*89 _091_
*90 _092_
*91 _093_
*92 _094_
*93 _095_
*94 _096_
*95 _097_
*96 _098_
*97 _099_
*98 _100_
*99 _101_
*100 _102_
*101 _103_
*102 _104_
*103 _105_
*104 _106_
*105 _107_
*106 _108_
*107 _109_
*108 _110_
*109 _111_
*110 _112_
*111 _113_
*112 _114_
*113 _115_
*114 _116_
*115 _117_
*116 _226_
*117 _227_
*118 _228_
*119 _229_
*120 _230_
*121 _231_
*122 _232_
*123 _233_
*124 _234_
*125 _235_
*126 _236_
*127 _237_
*128 _238_
*129 _239_
*130 _240_
*131 _241_
*132 _242_
*133 _243_
*134 _244_
*135 _245_
*136 _246_
*137 _247_
*138 _248_
*139 _249_
*140 _250_
*141 _251_
*142 _252_
*143 _253_
*144 _254_
*145 _255_
*146 _256_
*147 _257_
*148 _258_
*149 _259_
*150 _260_
*151 _261_
*152 _262_
*153 _263_
*154 _264_
*155 _265_
*156 _266_
*157 _267_
*158 _268_
*159 _269_
*160 addr_ptr[0]
*161 addr_ptr[1]
*162 addr_ptr[2]
*163 addr_ptr[3]
*164 clknet_0_clk
*165 clknet_2_0__leaf_clk
*166 clknet_2_1__leaf_clk
*167 clknet_2_2__leaf_clk
*168 clknet_2_3__leaf_clk
*169 curr_state[0]
*170 curr_state[2]
*171 data_in_reg[0]
*172 data_in_reg[1]
*173 data_in_reg[2]
*174 data_in_reg[3]
*175 data_in_reg[4]
*176 data_in_reg[5]
*177 data_in_reg[6]
*178 data_in_reg[7]
*179 init_count[0]
*180 init_count[1]
*181 init_count[2]
*182 init_count[3]
*183 net1
*184 net10
*185 net100
*186 net101
*187 net102
*188 net103
*189 net104
*190 net105
*191 net106
*192 net107
*193 net108
*194 net109
*195 net11
*196 net110
*197 net111
*198 net112
*199 net113
*200 net114
*201 net115
*202 net116
*203 net117
*204 net118
*205 net119
*206 net12
*207 net120
*208 net121
*209 net122
*210 net123
*211 net124
*212 net125
*213 net126
*214 net127
*215 net128
*216 net129
*217 net13
*218 net14
*219 net15
*220 net16
*221 net17
*222 net18
*223 net19
*224 net2
*225 net20
*226 net21
*227 net22
*228 net23
*229 net24
*230 net25
*231 net26
*232 net27
*233 net28
*234 net29
*235 net3
*236 net30
*237 net31
*238 net32
*239 net33
*240 net34
*241 net35
*242 net36
*243 net37
*244 net38
*245 net39
*246 net4
*247 net40
*248 net41
*249 net42
*250 net43
*251 net44
*252 net45
*253 net46
*254 net47
*255 net48
*256 net49
*257 net5
*258 net50
*259 net51
*260 net52
*261 net53
*262 net54
*263 net55
*264 net56
*265 net57
*266 net58
*267 net59
*268 net6
*269 net60
*270 net61
*271 net62
*272 net63
*273 net64
*274 net65
*275 net66
*276 net67
*277 net68
*278 net69
*279 net7
*280 net70
*281 net71
*282 net72
*283 net73
*284 net74
*285 net75
*286 net76
*287 net77
*288 net78
*289 net79
*290 net8
*291 net80
*292 net81
*293 net82
*294 net83
*295 net84
*296 net85
*297 net86
*298 net87
*299 net88
*300 net89
*301 net9
*302 net90
*303 net91
*304 net92
*305 net93
*306 net94
*307 net95
*308 net96
*309 net97
*310 net98
*311 net99
*312 product[0]
*313 product[10]
*314 product[11]
*315 product[12]
*316 product[13]
*317 product[14]
*318 product[15]
*319 product[1]
*320 product[2]
*321 product[3]
*322 product[4]
*323 product[5]
*324 product[6]
*325 product[7]
*326 product[8]
*327 product[9]
*328 sram_rdata[0]
*329 sram_rdata[1]
*330 sram_rdata[2]
*331 sram_rdata[3]
*332 sram_rdata[4]
*333 sram_rdata[5]
*334 sram_rdata[6]
*335 sram_rdata[7]
*336 sram_rdata_reg[0]
*337 sram_rdata_reg[1]
*338 sram_rdata_reg[2]
*339 sram_rdata_reg[3]
*340 sram_rdata_reg[4]
*341 sram_rdata_reg[5]
*342 sram_rdata_reg[6]
*343 sram_rdata_reg[7]
*344 u_multiplier/STAGE1/E_4_2_pp_10/_08_
*345 u_multiplier/STAGE1/E_4_2_pp_10/_09_
*346 u_multiplier/STAGE1/E_4_2_pp_10/_10_
*347 u_multiplier/STAGE1/E_4_2_pp_10/_11_
*348 u_multiplier/STAGE1/E_4_2_pp_10/_12_
*349 u_multiplier/STAGE1/E_4_2_pp_10/_13_
*350 u_multiplier/STAGE1/E_4_2_pp_10/_14_
*351 u_multiplier/STAGE1/E_4_2_pp_5/_08_
*352 u_multiplier/STAGE1/E_4_2_pp_5/_09_
*353 u_multiplier/STAGE1/E_4_2_pp_5/_10_
*354 u_multiplier/STAGE1/E_4_2_pp_5/_11_
*355 u_multiplier/STAGE1/E_4_2_pp_5/_12_
*356 u_multiplier/STAGE1/E_4_2_pp_5/_13_
*357 u_multiplier/STAGE1/E_4_2_pp_5/_14_
*358 u_multiplier/STAGE1/E_4_2_pp_6/_08_
*359 u_multiplier/STAGE1/E_4_2_pp_6/_09_
*360 u_multiplier/STAGE1/E_4_2_pp_6/_10_
*361 u_multiplier/STAGE1/E_4_2_pp_6/_11_
*362 u_multiplier/STAGE1/E_4_2_pp_6/_12_
*363 u_multiplier/STAGE1/E_4_2_pp_6/_13_
*364 u_multiplier/STAGE1/E_4_2_pp_6/_14_
*365 u_multiplier/STAGE1/E_4_2_pp_7_1/_08_
*366 u_multiplier/STAGE1/E_4_2_pp_7_1/_09_
*367 u_multiplier/STAGE1/E_4_2_pp_7_1/_10_
*368 u_multiplier/STAGE1/E_4_2_pp_7_1/_11_
*369 u_multiplier/STAGE1/E_4_2_pp_7_1/_12_
*370 u_multiplier/STAGE1/E_4_2_pp_7_1/_13_
*371 u_multiplier/STAGE1/E_4_2_pp_7_1/_14_
*372 u_multiplier/STAGE1/E_4_2_pp_7_2/_08_
*373 u_multiplier/STAGE1/E_4_2_pp_7_2/_09_
*374 u_multiplier/STAGE1/E_4_2_pp_7_2/_10_
*375 u_multiplier/STAGE1/E_4_2_pp_7_2/_11_
*376 u_multiplier/STAGE1/E_4_2_pp_7_2/_12_
*377 u_multiplier/STAGE1/E_4_2_pp_7_2/_13_
*378 u_multiplier/STAGE1/E_4_2_pp_7_2/_14_
*379 u_multiplier/STAGE1/E_4_2_pp_8_1/_08_
*380 u_multiplier/STAGE1/E_4_2_pp_8_1/_09_
*381 u_multiplier/STAGE1/E_4_2_pp_8_1/_10_
*382 u_multiplier/STAGE1/E_4_2_pp_8_1/_11_
*383 u_multiplier/STAGE1/E_4_2_pp_8_1/_12_
*384 u_multiplier/STAGE1/E_4_2_pp_8_1/_13_
*385 u_multiplier/STAGE1/E_4_2_pp_8_1/_14_
*386 u_multiplier/STAGE1/E_4_2_pp_8_2/_08_
*387 u_multiplier/STAGE1/E_4_2_pp_8_2/_09_
*388 u_multiplier/STAGE1/E_4_2_pp_8_2/_10_
*389 u_multiplier/STAGE1/E_4_2_pp_8_2/_11_
*390 u_multiplier/STAGE1/E_4_2_pp_8_2/_12_
*391 u_multiplier/STAGE1/E_4_2_pp_8_2/_13_
*392 u_multiplier/STAGE1/E_4_2_pp_8_2/_14_
*393 u_multiplier/STAGE1/E_4_2_pp_9_1/_08_
*394 u_multiplier/STAGE1/E_4_2_pp_9_1/_09_
*395 u_multiplier/STAGE1/E_4_2_pp_9_1/_10_
*396 u_multiplier/STAGE1/E_4_2_pp_9_1/_11_
*397 u_multiplier/STAGE1/E_4_2_pp_9_1/_12_
*398 u_multiplier/STAGE1/E_4_2_pp_9_1/_13_
*399 u_multiplier/STAGE1/E_4_2_pp_9_1/_14_
*400 u_multiplier/STAGE1/Full_adder_pp_11/_05_
*401 u_multiplier/STAGE1/Full_adder_pp_11/_06_
*402 u_multiplier/STAGE1/Full_adder_pp_11/_07_
*403 u_multiplier/STAGE1/Full_adder_pp_11/_08_
*404 u_multiplier/STAGE1/Full_adder_pp_9/_05_
*405 u_multiplier/STAGE1/Full_adder_pp_9/_06_
*406 u_multiplier/STAGE1/Full_adder_pp_9/_07_
*407 u_multiplier/STAGE1/Full_adder_pp_9/_08_
*408 u_multiplier/STAGE1/_016_
*409 u_multiplier/STAGE1/_017_
*410 u_multiplier/STAGE1/_018_
*411 u_multiplier/STAGE1/_019_
*412 u_multiplier/STAGE1/_020_
*413 u_multiplier/STAGE1/_021_
*414 u_multiplier/STAGE1/_022_
*415 u_multiplier/STAGE1/_023_
*416 u_multiplier/STAGE1/_024_
*417 u_multiplier/STAGE1/_025_
*418 u_multiplier/STAGE1/_026_
*419 u_multiplier/STAGE1/_027_
*420 u_multiplier/STAGE1/_028_
*421 u_multiplier/STAGE1/_029_
*422 u_multiplier/STAGE1/_030_
*423 u_multiplier/STAGE1/_031_
*424 u_multiplier/STAGE1/_032_
*425 u_multiplier/STAGE1/_033_
*426 u_multiplier/STAGE1/_034_
*427 u_multiplier/STAGE1/_035_
*428 u_multiplier/STAGE1/_036_
*429 u_multiplier/STAGE1/_037_
*430 u_multiplier/STAGE1/_038_
*431 u_multiplier/STAGE1/_039_
*432 u_multiplier/STAGE1/_040_
*433 u_multiplier/STAGE1/_041_
*434 u_multiplier/STAGE1/_042_
*435 u_multiplier/STAGE1/_043_
*436 u_multiplier/STAGE1/_044_
*437 u_multiplier/STAGE1/_045_
*438 u_multiplier/STAGE1/_046_
*439 u_multiplier/STAGE1/_047_
*440 u_multiplier/STAGE1/_048_
*441 u_multiplier/STAGE1/_049_
*442 u_multiplier/STAGE1/_050_
*443 u_multiplier/STAGE1/_051_
*444 u_multiplier/STAGE1/_052_
*445 u_multiplier/STAGE1/_053_
*446 u_multiplier/STAGE1/_054_
*447 u_multiplier/STAGE1/pp_10_c2
*448 u_multiplier/STAGE1/pp_5_c2
*449 u_multiplier/STAGE1/pp_6_c2
*450 u_multiplier/STAGE1/pp_7_c2
*451 u_multiplier/STAGE1/pp_7_c4
*452 u_multiplier/STAGE1/pp_8_c2
*453 u_multiplier/STAGE1/pp_8_c4
*454 u_multiplier/STAGE1/pp_9_c2
*455 u_multiplier/STAGE2/E_4_2_pp_10/_08_
*456 u_multiplier/STAGE2/E_4_2_pp_10/_09_
*457 u_multiplier/STAGE2/E_4_2_pp_10/_10_
*458 u_multiplier/STAGE2/E_4_2_pp_10/_11_
*459 u_multiplier/STAGE2/E_4_2_pp_10/_12_
*460 u_multiplier/STAGE2/E_4_2_pp_10/_13_
*461 u_multiplier/STAGE2/E_4_2_pp_10/_14_
*462 u_multiplier/STAGE2/E_4_2_pp_11/_08_
*463 u_multiplier/STAGE2/E_4_2_pp_11/_09_
*464 u_multiplier/STAGE2/E_4_2_pp_11/_10_
*465 u_multiplier/STAGE2/E_4_2_pp_11/_11_
*466 u_multiplier/STAGE2/E_4_2_pp_11/_12_
*467 u_multiplier/STAGE2/E_4_2_pp_11/_13_
*468 u_multiplier/STAGE2/E_4_2_pp_11/_14_
*469 u_multiplier/STAGE2/E_4_2_pp_12/_08_
*470 u_multiplier/STAGE2/E_4_2_pp_12/_09_
*471 u_multiplier/STAGE2/E_4_2_pp_12/_10_
*472 u_multiplier/STAGE2/E_4_2_pp_12/_11_
*473 u_multiplier/STAGE2/E_4_2_pp_12/_12_
*474 u_multiplier/STAGE2/E_4_2_pp_12/_13_
*475 u_multiplier/STAGE2/E_4_2_pp_12/_14_
*476 u_multiplier/STAGE2/E_4_2_pp_3/_08_
*477 u_multiplier/STAGE2/E_4_2_pp_3/_09_
*478 u_multiplier/STAGE2/E_4_2_pp_3/_10_
*479 u_multiplier/STAGE2/E_4_2_pp_3/_11_
*480 u_multiplier/STAGE2/E_4_2_pp_3/_12_
*481 u_multiplier/STAGE2/E_4_2_pp_3/_13_
*482 u_multiplier/STAGE2/E_4_2_pp_3/_14_
*483 u_multiplier/STAGE2/E_4_2_pp_4/_08_
*484 u_multiplier/STAGE2/E_4_2_pp_4/_09_
*485 u_multiplier/STAGE2/E_4_2_pp_4/_10_
*486 u_multiplier/STAGE2/E_4_2_pp_4/_11_
*487 u_multiplier/STAGE2/E_4_2_pp_4/_12_
*488 u_multiplier/STAGE2/E_4_2_pp_4/_13_
*489 u_multiplier/STAGE2/E_4_2_pp_4/_14_
*490 u_multiplier/STAGE2/E_4_2_pp_5/_08_
*491 u_multiplier/STAGE2/E_4_2_pp_5/_09_
*492 u_multiplier/STAGE2/E_4_2_pp_5/_10_
*493 u_multiplier/STAGE2/E_4_2_pp_5/_11_
*494 u_multiplier/STAGE2/E_4_2_pp_5/_12_
*495 u_multiplier/STAGE2/E_4_2_pp_5/_13_
*496 u_multiplier/STAGE2/E_4_2_pp_5/_14_
*497 u_multiplier/STAGE2/E_4_2_pp_6/_08_
*498 u_multiplier/STAGE2/E_4_2_pp_6/_09_
*499 u_multiplier/STAGE2/E_4_2_pp_6/_10_
*500 u_multiplier/STAGE2/E_4_2_pp_6/_11_
*501 u_multiplier/STAGE2/E_4_2_pp_6/_12_
*502 u_multiplier/STAGE2/E_4_2_pp_6/_13_
*503 u_multiplier/STAGE2/E_4_2_pp_6/_14_
*504 u_multiplier/STAGE2/E_4_2_pp_7/_08_
*505 u_multiplier/STAGE2/E_4_2_pp_7/_09_
*506 u_multiplier/STAGE2/E_4_2_pp_7/_10_
*507 u_multiplier/STAGE2/E_4_2_pp_7/_11_
*508 u_multiplier/STAGE2/E_4_2_pp_7/_12_
*509 u_multiplier/STAGE2/E_4_2_pp_7/_13_
*510 u_multiplier/STAGE2/E_4_2_pp_7/_14_
*511 u_multiplier/STAGE2/E_4_2_pp_8/_08_
*512 u_multiplier/STAGE2/E_4_2_pp_8/_09_
*513 u_multiplier/STAGE2/E_4_2_pp_8/_10_
*514 u_multiplier/STAGE2/E_4_2_pp_8/_11_
*515 u_multiplier/STAGE2/E_4_2_pp_8/_12_
*516 u_multiplier/STAGE2/E_4_2_pp_8/_13_
*517 u_multiplier/STAGE2/E_4_2_pp_8/_14_
*518 u_multiplier/STAGE2/E_4_2_pp_9/_08_
*519 u_multiplier/STAGE2/E_4_2_pp_9/_09_
*520 u_multiplier/STAGE2/E_4_2_pp_9/_10_
*521 u_multiplier/STAGE2/E_4_2_pp_9/_11_
*522 u_multiplier/STAGE2/E_4_2_pp_9/_12_
*523 u_multiplier/STAGE2/E_4_2_pp_9/_13_
*524 u_multiplier/STAGE2/E_4_2_pp_9/_14_
*525 u_multiplier/STAGE2/Final_add/Cout
*526 u_multiplier/STAGE2/Final_add/c1
*527 u_multiplier/STAGE2/Final_add/c2
*528 u_multiplier/STAGE2/Final_add/c3
*529 u_multiplier/STAGE2/Final_add/cla1/_14_
*530 u_multiplier/STAGE2/Final_add/cla1/_15_
*531 u_multiplier/STAGE2/Final_add/cla1/_16_
*532 u_multiplier/STAGE2/Final_add/cla1/_17_
*533 u_multiplier/STAGE2/Final_add/cla1/_18_
*534 u_multiplier/STAGE2/Final_add/cla1/_19_
*535 u_multiplier/STAGE2/Final_add/cla1/_20_
*536 u_multiplier/STAGE2/Final_add/cla1/_21_
*537 u_multiplier/STAGE2/Final_add/cla1/_22_
*538 u_multiplier/STAGE2/Final_add/cla1/_23_
*539 u_multiplier/STAGE2/Final_add/cla1/_24_
*540 u_multiplier/STAGE2/Final_add/cla1/_25_
*541 u_multiplier/STAGE2/Final_add/cla1/_26_
*542 u_multiplier/STAGE2/Final_add/cla1/_27_
*543 u_multiplier/STAGE2/Final_add/cla1/_28_
*544 u_multiplier/STAGE2/Final_add/cla2/_14_
*545 u_multiplier/STAGE2/Final_add/cla2/_15_
*546 u_multiplier/STAGE2/Final_add/cla2/_16_
*547 u_multiplier/STAGE2/Final_add/cla2/_17_
*548 u_multiplier/STAGE2/Final_add/cla2/_18_
*549 u_multiplier/STAGE2/Final_add/cla2/_19_
*550 u_multiplier/STAGE2/Final_add/cla2/_20_
*551 u_multiplier/STAGE2/Final_add/cla2/_21_
*552 u_multiplier/STAGE2/Final_add/cla2/_22_
*553 u_multiplier/STAGE2/Final_add/cla2/_23_
*554 u_multiplier/STAGE2/Final_add/cla2/_24_
*555 u_multiplier/STAGE2/Final_add/cla2/_25_
*556 u_multiplier/STAGE2/Final_add/cla2/_26_
*557 u_multiplier/STAGE2/Final_add/cla2/_27_
*558 u_multiplier/STAGE2/Final_add/cla2/_28_
*559 u_multiplier/STAGE2/Final_add/cla3/_14_
*560 u_multiplier/STAGE2/Final_add/cla3/_15_
*561 u_multiplier/STAGE2/Final_add/cla3/_16_
*562 u_multiplier/STAGE2/Final_add/cla3/_17_
*563 u_multiplier/STAGE2/Final_add/cla3/_18_
*564 u_multiplier/STAGE2/Final_add/cla3/_19_
*565 u_multiplier/STAGE2/Final_add/cla3/_20_
*566 u_multiplier/STAGE2/Final_add/cla3/_21_
*567 u_multiplier/STAGE2/Final_add/cla3/_22_
*568 u_multiplier/STAGE2/Final_add/cla3/_23_
*569 u_multiplier/STAGE2/Final_add/cla3/_24_
*570 u_multiplier/STAGE2/Final_add/cla3/_25_
*571 u_multiplier/STAGE2/Final_add/cla3/_26_
*572 u_multiplier/STAGE2/Final_add/cla3/_27_
*573 u_multiplier/STAGE2/Final_add/cla3/_28_
*574 u_multiplier/STAGE2/Final_add/cla4/_14_
*575 u_multiplier/STAGE2/Final_add/cla4/_15_
*576 u_multiplier/STAGE2/Final_add/cla4/_16_
*577 u_multiplier/STAGE2/Final_add/cla4/_17_
*578 u_multiplier/STAGE2/Final_add/cla4/_18_
*579 u_multiplier/STAGE2/Final_add/cla4/_19_
*580 u_multiplier/STAGE2/Final_add/cla4/_20_
*581 u_multiplier/STAGE2/Final_add/cla4/_21_
*582 u_multiplier/STAGE2/Final_add/cla4/_22_
*583 u_multiplier/STAGE2/Final_add/cla4/_23_
*584 u_multiplier/STAGE2/Final_add/cla4/_24_
*585 u_multiplier/STAGE2/Final_add/cla4/_25_
*586 u_multiplier/STAGE2/Final_add/cla4/_26_
*587 u_multiplier/STAGE2/Final_add/cla4/_27_
*588 u_multiplier/STAGE2/Final_add/cla4/_28_
*589 u_multiplier/STAGE2/Full_adder_pp_13/_05_
*590 u_multiplier/STAGE2/Full_adder_pp_13/_06_
*591 u_multiplier/STAGE2/Full_adder_pp_13/_07_
*592 u_multiplier/STAGE2/Full_adder_pp_13/_08_
*593 u_multiplier/STAGE2/pp_10_c1
*594 u_multiplier/STAGE2/pp_10_c2
*595 u_multiplier/STAGE2/pp_10_s
*596 u_multiplier/STAGE2/pp_11_c1
*597 u_multiplier/STAGE2/pp_11_c2
*598 u_multiplier/STAGE2/pp_11_s
*599 u_multiplier/STAGE2/pp_12_c1
*600 u_multiplier/STAGE2/pp_12_c2
*601 u_multiplier/STAGE2/pp_12_s
*602 u_multiplier/STAGE2/pp_13_c
*603 u_multiplier/STAGE2/pp_13_s
*604 u_multiplier/STAGE2/pp_2_c
*605 u_multiplier/STAGE2/pp_2_s
*606 u_multiplier/STAGE2/pp_3_c1
*607 u_multiplier/STAGE2/pp_3_c2
*608 u_multiplier/STAGE2/pp_3_s
*609 u_multiplier/STAGE2/pp_4_c1
*610 u_multiplier/STAGE2/pp_4_c2
*611 u_multiplier/STAGE2/pp_4_s
*612 u_multiplier/STAGE2/pp_5_c1
*613 u_multiplier/STAGE2/pp_5_c2
*614 u_multiplier/STAGE2/pp_5_s
*615 u_multiplier/STAGE2/pp_6_c1
*616 u_multiplier/STAGE2/pp_6_c2
*617 u_multiplier/STAGE2/pp_6_s
*618 u_multiplier/STAGE2/pp_7_c1
*619 u_multiplier/STAGE2/pp_7_c2
*620 u_multiplier/STAGE2/pp_7_s
*621 u_multiplier/STAGE2/pp_8_c1
*622 u_multiplier/STAGE2/pp_8_c2
*623 u_multiplier/STAGE2/pp_8_s
*624 u_multiplier/STAGE2/pp_9_c1
*625 u_multiplier/STAGE2/pp_9_c2
*626 u_multiplier/STAGE2/pp_9_s
*627 u_multiplier/approx[15]
*628 u_multiplier/pp_0
*629 u_multiplier/pp_10[0]
*630 u_multiplier/pp_10[1]
*631 u_multiplier/pp_10[2]
*632 u_multiplier/pp_10[3]
*633 u_multiplier/pp_11[0]
*634 u_multiplier/pp_11[1]
*635 u_multiplier/pp_11[2]
*636 u_multiplier/pp_11[3]
*637 u_multiplier/pp_12[0]
*638 u_multiplier/pp_12[1]
*639 u_multiplier/pp_12[2]
*640 u_multiplier/pp_12[3]
*641 u_multiplier/pp_13[0]
*642 u_multiplier/pp_13[1]
*643 u_multiplier/pp_14
*644 u_multiplier/pp_1[0]
*645 u_multiplier/pp_1[1]
*646 u_multiplier/pp_2[0]
*647 u_multiplier/pp_2[1]
*648 u_multiplier/pp_2[2]
*649 u_multiplier/pp_3[0]
*650 u_multiplier/pp_3[1]
*651 u_multiplier/pp_3[2]
*652 u_multiplier/pp_3[3]
*653 u_multiplier/pp_4[0]
*654 u_multiplier/pp_4[1]
*655 u_multiplier/pp_4[2]
*656 u_multiplier/pp_4[3]
*657 u_multiplier/pp_5[0]
*658 u_multiplier/pp_5[1]
*659 u_multiplier/pp_5[2]
*660 u_multiplier/pp_5[3]
*661 u_multiplier/pp_6[0]
*662 u_multiplier/pp_6[1]
*663 u_multiplier/pp_6[2]
*664 u_multiplier/pp_6[3]
*665 u_multiplier/pp_7[0]
*666 u_multiplier/pp_7[1]
*667 u_multiplier/pp_7[2]
*668 u_multiplier/pp_7[3]
*669 u_multiplier/pp_8[0]
*670 u_multiplier/pp_8[1]
*671 u_multiplier/pp_8[2]
*672 u_multiplier/pp_8[3]
*673 u_multiplier/pp_9[0]
*674 u_multiplier/pp_9[1]
*675 u_multiplier/pp_9[2]
*676 u_multiplier/pp_9[3]
*677 FILLER_0_1
*678 FILLER_0_103
*679 FILLER_0_135
*680 FILLER_0_151
*681 FILLER_0_159
*682 FILLER_0_161
*683 FILLER_0_165
*684 FILLER_0_197
*685 FILLER_0_229
*686 FILLER_0_245
*687 FILLER_0_253
*688 FILLER_0_255
*689 FILLER_0_259
*690 FILLER_0_263
*691 FILLER_0_268
*692 FILLER_0_300
*693 FILLER_0_316
*694 FILLER_0_324
*695 FILLER_0_328
*696 FILLER_0_333
*697 FILLER_0_341
*698 FILLER_0_349
*699 FILLER_0_381
*700 FILLER_0_40
*701 FILLER_0_413
*702 FILLER_0_429
*703 FILLER_0_437
*704 FILLER_0_442
*705 FILLER_0_474
*706 FILLER_0_506
*707 FILLER_0_522
*708 FILLER_0_530
*709 FILLER_0_537
*710 FILLER_0_56
*711 FILLER_0_569
*712 FILLER_0_601
*713 FILLER_0_617
*714 FILLER_0_625
*715 FILLER_0_629
*716 FILLER_0_632
*717 FILLER_0_639
*718 FILLER_0_64
*719 FILLER_0_647
*720 FILLER_0_651
*721 FILLER_0_71
*722 FILLER_0_8
*723 FILLER_10_1
*724 FILLER_10_113
*725 FILLER_10_117
*726 FILLER_10_33
*727 FILLER_10_516
*728 FILLER_10_523
*729 FILLER_10_531
*730 FILLER_10_533
*731 FILLER_10_541
*732 FILLER_10_545
*733 FILLER_10_547
*734 FILLER_10_551
*735 FILLER_10_558
*736 FILLER_10_564
*737 FILLER_10_570
*738 FILLER_10_574
*739 FILLER_10_576
*740 FILLER_10_579
*741 FILLER_10_595
*742 FILLER_10_597
*743 FILLER_10_601
*744 FILLER_10_613
*745 FILLER_10_620
*746 FILLER_10_624
*747 FILLER_10_628
*748 FILLER_10_635
*749 FILLER_10_65
*750 FILLER_10_651
*751 FILLER_10_97
*752 FILLER_11_1
*753 FILLER_11_113
*754 FILLER_11_117
*755 FILLER_11_33
*756 FILLER_11_516
*757 FILLER_11_532
*758 FILLER_11_534
*759 FILLER_11_541
*760 FILLER_11_545
*761 FILLER_11_547
*762 FILLER_11_551
*763 FILLER_11_561
*764 FILLER_11_568
*765 FILLER_11_572
*766 FILLER_11_584
*767 FILLER_11_592
*768 FILLER_11_598
*769 FILLER_11_606
*770 FILLER_11_610
*771 FILLER_11_612
*772 FILLER_11_615
*773 FILLER_11_619
*774 FILLER_11_621
*775 FILLER_11_631
*776 FILLER_11_639
*777 FILLER_11_641
*778 FILLER_11_646
*779 FILLER_11_65
*780 FILLER_11_650
*781 FILLER_11_97
*782 FILLER_12_1
*783 FILLER_12_113
*784 FILLER_12_117
*785 FILLER_12_33
*786 FILLER_12_516
*787 FILLER_12_525
*788 FILLER_12_529
*789 FILLER_12_535
*790 FILLER_12_541
*791 FILLER_12_545
*792 FILLER_12_551
*793 FILLER_12_561
*794 FILLER_12_571
*795 FILLER_12_585
*796 FILLER_12_593
*797 FILLER_12_597
*798 FILLER_12_602
*799 FILLER_12_610
*800 FILLER_12_618
*801 FILLER_12_625
*802 FILLER_12_629
*803 FILLER_12_647
*804 FILLER_12_65
*805 FILLER_12_651
*806 FILLER_12_97
*807 FILLER_13_1
*808 FILLER_13_113
*809 FILLER_13_117
*810 FILLER_13_33
*811 FILLER_13_516
*812 FILLER_13_526
*813 FILLER_13_532
*814 FILLER_13_536
*815 FILLER_13_543
*816 FILLER_13_553
*817 FILLER_13_559
*818 FILLER_13_582
*819 FILLER_13_590
*820 FILLER_13_594
*821 FILLER_13_599
*822 FILLER_13_606
*823 FILLER_13_619
*824 FILLER_13_623
*825 FILLER_13_632
*826 FILLER_13_642
*827 FILLER_13_65
*828 FILLER_13_650
*829 FILLER_13_97
*830 FILLER_14_1
*831 FILLER_14_105
*832 FILLER_14_109
*833 FILLER_14_114
*834 FILLER_14_33
*835 FILLER_14_516
*836 FILLER_14_537
*837 FILLER_14_548
*838 FILLER_14_556
*839 FILLER_14_564
*840 FILLER_14_568
*841 FILLER_14_571
*842 FILLER_14_579
*843 FILLER_14_584
*844 FILLER_14_590
*845 FILLER_14_596
*846 FILLER_14_602
*847 FILLER_14_606
*848 FILLER_14_611
*849 FILLER_14_618
*850 FILLER_14_626
*851 FILLER_14_633
*852 FILLER_14_643
*853 FILLER_14_65
*854 FILLER_14_651
*855 FILLER_14_97
*856 FILLER_15_1
*857 FILLER_15_105
*858 FILLER_15_109
*859 FILLER_15_114
*860 FILLER_15_33
*861 FILLER_15_516
*862 FILLER_15_524
*863 FILLER_15_532
*864 FILLER_15_535
*865 FILLER_15_539
*866 FILLER_15_541
*867 FILLER_15_545
*868 FILLER_15_552
*869 FILLER_15_559
*870 FILLER_15_565
*871 FILLER_15_575
*872 FILLER_15_591
*873 FILLER_15_596
*874 FILLER_15_612
*875 FILLER_15_620
*876 FILLER_15_625
*877 FILLER_15_629
*878 FILLER_15_631
*879 FILLER_15_636
*880 FILLER_15_640
*881 FILLER_15_642
*882 FILLER_15_647
*883 FILLER_15_65
*884 FILLER_15_651
*885 FILLER_15_97
*886 FILLER_16_1
*887 FILLER_16_114
*888 FILLER_16_33
*889 FILLER_16_516
*890 FILLER_16_524
*891 FILLER_16_528
*892 FILLER_16_530
*893 FILLER_16_534
*894 FILLER_16_547
*895 FILLER_16_563
*896 FILLER_16_571
*897 FILLER_16_575
*898 FILLER_16_579
*899 FILLER_16_587
*900 FILLER_16_601
*901 FILLER_16_612
*902 FILLER_16_619
*903 FILLER_16_623
*904 FILLER_16_626
*905 FILLER_16_636
*906 FILLER_16_648
*907 FILLER_16_65
*908 FILLER_16_81
*909 FILLER_16_89
*910 FILLER_16_93
*911 FILLER_17_1
*912 FILLER_17_113
*913 FILLER_17_117
*914 FILLER_17_33
*915 FILLER_17_516
*916 FILLER_17_524
*917 FILLER_17_528
*918 FILLER_17_530
*919 FILLER_17_534
*920 FILLER_17_542
*921 FILLER_17_550
*922 FILLER_17_556
*923 FILLER_17_564
*924 FILLER_17_572
*925 FILLER_17_580
*926 FILLER_17_587
*927 FILLER_17_595
*928 FILLER_17_600
*929 FILLER_17_608
*930 FILLER_17_612
*931 FILLER_17_623
*932 FILLER_17_630
*933 FILLER_17_634
*934 FILLER_17_641
*935 FILLER_17_648
*936 FILLER_17_65
*937 FILLER_17_97
*938 FILLER_18_1
*939 FILLER_18_113
*940 FILLER_18_117
*941 FILLER_18_33
*942 FILLER_18_516
*943 FILLER_18_532
*944 FILLER_18_534
*945 FILLER_18_545
*946 FILLER_18_558
*947 FILLER_18_562
*948 FILLER_18_566
*949 FILLER_18_579
*950 FILLER_18_587
*951 FILLER_18_595
*952 FILLER_18_603
*953 FILLER_18_616
*954 FILLER_18_620
*955 FILLER_18_622
*956 FILLER_18_633
*957 FILLER_18_644
*958 FILLER_18_65
*959 FILLER_18_97
*960 FILLER_19_1
*961 FILLER_19_113
*962 FILLER_19_117
*963 FILLER_19_33
*964 FILLER_19_516
*965 FILLER_19_520
*966 FILLER_19_524
*967 FILLER_19_532
*968 FILLER_19_545
*969 FILLER_19_553
*970 FILLER_19_561
*971 FILLER_19_568
*972 FILLER_19_575
*973 FILLER_19_588
*974 FILLER_19_594
*975 FILLER_19_602
*976 FILLER_19_614
*977 FILLER_19_618
*978 FILLER_19_623
*979 FILLER_19_631
*980 FILLER_19_641
*981 FILLER_19_649
*982 FILLER_19_65
*983 FILLER_19_651
*984 FILLER_19_97
*985 FILLER_1_1
*986 FILLER_1_129
*987 FILLER_1_161
*988 FILLER_1_193
*989 FILLER_1_225
*990 FILLER_1_241
*991 FILLER_1_249
*992 FILLER_1_253
*993 FILLER_1_258
*994 FILLER_1_281
*995 FILLER_1_313
*996 FILLER_1_318
*997 FILLER_1_33
*998 FILLER_1_341
*999 FILLER_1_373
*1000 FILLER_1_405
*1001 FILLER_1_437
*1002 FILLER_1_469
*1003 FILLER_1_501
*1004 FILLER_1_505
*1005 FILLER_1_507
*1006 FILLER_1_512
*1007 FILLER_1_544
*1008 FILLER_1_576
*1009 FILLER_1_608
*1010 FILLER_1_640
*1011 FILLER_1_648
*1012 FILLER_1_65
*1013 FILLER_1_97
*1014 FILLER_20_1
*1015 FILLER_20_113
*1016 FILLER_20_117
*1017 FILLER_20_33
*1018 FILLER_20_516
*1019 FILLER_20_524
*1020 FILLER_20_531
*1021 FILLER_20_545
*1022 FILLER_20_556
*1023 FILLER_20_564
*1024 FILLER_20_566
*1025 FILLER_20_571
*1026 FILLER_20_579
*1027 FILLER_20_583
*1028 FILLER_20_588
*1029 FILLER_20_595
*1030 FILLER_20_602
*1031 FILLER_20_618
*1032 FILLER_20_626
*1033 FILLER_20_647
*1034 FILLER_20_65
*1035 FILLER_20_651
*1036 FILLER_20_97
*1037 FILLER_21_1
*1038 FILLER_21_113
*1039 FILLER_21_117
*1040 FILLER_21_33
*1041 FILLER_21_516
*1042 FILLER_21_524
*1043 FILLER_21_528
*1044 FILLER_21_533
*1045 FILLER_21_537
*1046 FILLER_21_540
*1047 FILLER_21_546
*1048 FILLER_21_562
*1049 FILLER_21_570
*1050 FILLER_21_583
*1051 FILLER_21_587
*1052 FILLER_21_593
*1053 FILLER_21_607
*1054 FILLER_21_613
*1055 FILLER_21_621
*1056 FILLER_21_623
*1057 FILLER_21_626
*1058 FILLER_21_638
*1059 FILLER_21_646
*1060 FILLER_21_65
*1061 FILLER_21_650
*1062 FILLER_21_97
*1063 FILLER_22_1
*1064 FILLER_22_105
*1065 FILLER_22_114
*1066 FILLER_22_40
*1067 FILLER_22_516
*1068 FILLER_22_523
*1069 FILLER_22_527
*1070 FILLER_22_532
*1071 FILLER_22_536
*1072 FILLER_22_538
*1073 FILLER_22_542
*1074 FILLER_22_548
*1075 FILLER_22_552
*1076 FILLER_22_558
*1077 FILLER_22_566
*1078 FILLER_22_574
*1079 FILLER_22_582
*1080 FILLER_22_593
*1081 FILLER_22_600
*1082 FILLER_22_604
*1083 FILLER_22_613
*1084 FILLER_22_639
*1085 FILLER_22_647
*1086 FILLER_22_651
*1087 FILLER_22_72
*1088 FILLER_22_8
*1089 FILLER_22_88
*1090 FILLER_22_96
*1091 FILLER_23_1
*1092 FILLER_23_113
*1093 FILLER_23_117
*1094 FILLER_23_33
*1095 FILLER_23_516
*1096 FILLER_23_531
*1097 FILLER_23_539
*1098 FILLER_23_545
*1099 FILLER_23_553
*1100 FILLER_23_561
*1101 FILLER_23_565
*1102 FILLER_23_567
*1103 FILLER_23_577
*1104 FILLER_23_585
*1105 FILLER_23_592
*1106 FILLER_23_598
*1107 FILLER_23_616
*1108 FILLER_23_623
*1109 FILLER_23_630
*1110 FILLER_23_637
*1111 FILLER_23_645
*1112 FILLER_23_649
*1113 FILLER_23_65
*1114 FILLER_23_651
*1115 FILLER_23_97
*1116 FILLER_24_1
*1117 FILLER_24_113
*1118 FILLER_24_117
*1119 FILLER_24_33
*1120 FILLER_24_516
*1121 FILLER_24_522
*1122 FILLER_24_526
*1123 FILLER_24_533
*1124 FILLER_24_541
*1125 FILLER_24_549
*1126 FILLER_24_556
*1127 FILLER_24_569
*1128 FILLER_24_577
*1129 FILLER_24_584
*1130 FILLER_24_591
*1131 FILLER_24_595
*1132 FILLER_24_600
*1133 FILLER_24_608
*1134 FILLER_24_625
*1135 FILLER_24_638
*1136 FILLER_24_642
*1137 FILLER_24_644
*1138 FILLER_24_648
*1139 FILLER_24_65
*1140 FILLER_24_97
*1141 FILLER_25_1
*1142 FILLER_25_113
*1143 FILLER_25_117
*1144 FILLER_25_33
*1145 FILLER_25_516
*1146 FILLER_25_537
*1147 FILLER_25_545
*1148 FILLER_25_553
*1149 FILLER_25_557
*1150 FILLER_25_559
*1151 FILLER_25_564
*1152 FILLER_25_572
*1153 FILLER_25_583
*1154 FILLER_25_591
*1155 FILLER_25_605
*1156 FILLER_25_621
*1157 FILLER_25_625
*1158 FILLER_25_639
*1159 FILLER_25_643
*1160 FILLER_25_648
*1161 FILLER_25_65
*1162 FILLER_25_97
*1163 FILLER_26_1
*1164 FILLER_26_113
*1165 FILLER_26_117
*1166 FILLER_26_33
*1167 FILLER_26_516
*1168 FILLER_26_522
*1169 FILLER_26_532
*1170 FILLER_26_540
*1171 FILLER_26_548
*1172 FILLER_26_555
*1173 FILLER_26_562
*1174 FILLER_26_570
*1175 FILLER_26_574
*1176 FILLER_26_578
*1177 FILLER_26_594
*1178 FILLER_26_598
*1179 FILLER_26_601
*1180 FILLER_26_612
*1181 FILLER_26_628
*1182 FILLER_26_633
*1183 FILLER_26_644
*1184 FILLER_26_65
*1185 FILLER_26_97
*1186 FILLER_27_1
*1187 FILLER_27_113
*1188 FILLER_27_117
*1189 FILLER_27_33
*1190 FILLER_27_516
*1191 FILLER_27_525
*1192 FILLER_27_533
*1193 FILLER_27_540
*1194 FILLER_27_547
*1195 FILLER_27_560
*1196 FILLER_27_573
*1197 FILLER_27_581
*1198 FILLER_27_589
*1199 FILLER_27_593
*1200 FILLER_27_599
*1201 FILLER_27_613
*1202 FILLER_27_621
*1203 FILLER_27_628
*1204 FILLER_27_642
*1205 FILLER_27_648
*1206 FILLER_27_65
*1207 FILLER_27_97
*1208 FILLER_28_1
*1209 FILLER_28_113
*1210 FILLER_28_117
*1211 FILLER_28_33
*1212 FILLER_28_516
*1213 FILLER_28_523
*1214 FILLER_28_529
*1215 FILLER_28_533
*1216 FILLER_28_540
*1217 FILLER_28_544
*1218 FILLER_28_549
*1219 FILLER_28_565
*1220 FILLER_28_569
*1221 FILLER_28_573
*1222 FILLER_28_587
*1223 FILLER_28_591
*1224 FILLER_28_597
*1225 FILLER_28_605
*1226 FILLER_28_611
*1227 FILLER_28_624
*1228 FILLER_28_637
*1229 FILLER_28_647
*1230 FILLER_28_65
*1231 FILLER_28_651
*1232 FILLER_28_97
*1233 FILLER_29_1
*1234 FILLER_29_113
*1235 FILLER_29_117
*1236 FILLER_29_33
*1237 FILLER_29_516
*1238 FILLER_29_525
*1239 FILLER_29_541
*1240 FILLER_29_545
*1241 FILLER_29_556
*1242 FILLER_29_564
*1243 FILLER_29_571
*1244 FILLER_29_577
*1245 FILLER_29_583
*1246 FILLER_29_599
*1247 FILLER_29_607
*1248 FILLER_29_616
*1249 FILLER_29_620
*1250 FILLER_29_624
*1251 FILLER_29_631
*1252 FILLER_29_645
*1253 FILLER_29_649
*1254 FILLER_29_65
*1255 FILLER_29_651
*1256 FILLER_29_97
*1257 FILLER_2_1
*1258 FILLER_2_129
*1259 FILLER_2_161
*1260 FILLER_2_193
*1261 FILLER_2_209
*1262 FILLER_2_217
*1263 FILLER_2_221
*1264 FILLER_2_242
*1265 FILLER_2_265
*1266 FILLER_2_288
*1267 FILLER_2_296
*1268 FILLER_2_300
*1269 FILLER_2_302
*1270 FILLER_2_307
*1271 FILLER_2_315
*1272 FILLER_2_33
*1273 FILLER_2_338
*1274 FILLER_2_346
*1275 FILLER_2_351
*1276 FILLER_2_383
*1277 FILLER_2_415
*1278 FILLER_2_419
*1279 FILLER_2_439
*1280 FILLER_2_447
*1281 FILLER_2_451
*1282 FILLER_2_453
*1283 FILLER_2_471
*1284 FILLER_2_487
*1285 FILLER_2_495
*1286 FILLER_2_503
*1287 FILLER_2_513
*1288 FILLER_2_523
*1289 FILLER_2_531
*1290 FILLER_2_539
*1291 FILLER_2_545
*1292 FILLER_2_577
*1293 FILLER_2_609
*1294 FILLER_2_625
*1295 FILLER_2_629
*1296 FILLER_2_632
*1297 FILLER_2_640
*1298 FILLER_2_644
*1299 FILLER_2_648
*1300 FILLER_2_65
*1301 FILLER_2_97
*1302 FILLER_30_1
*1303 FILLER_30_113
*1304 FILLER_30_117
*1305 FILLER_30_33
*1306 FILLER_30_516
*1307 FILLER_30_528
*1308 FILLER_30_536
*1309 FILLER_30_544
*1310 FILLER_30_552
*1311 FILLER_30_556
*1312 FILLER_30_570
*1313 FILLER_30_588
*1314 FILLER_30_599
*1315 FILLER_30_607
*1316 FILLER_30_614
*1317 FILLER_30_620
*1318 FILLER_30_628
*1319 FILLER_30_638
*1320 FILLER_30_642
*1321 FILLER_30_644
*1322 FILLER_30_648
*1323 FILLER_30_65
*1324 FILLER_30_97
*1325 FILLER_31_1
*1326 FILLER_31_113
*1327 FILLER_31_117
*1328 FILLER_31_33
*1329 FILLER_31_516
*1330 FILLER_31_532
*1331 FILLER_31_540
*1332 FILLER_31_544
*1333 FILLER_31_547
*1334 FILLER_31_554
*1335 FILLER_31_560
*1336 FILLER_31_572
*1337 FILLER_31_578
*1338 FILLER_31_582
*1339 FILLER_31_587
*1340 FILLER_31_595
*1341 FILLER_31_599
*1342 FILLER_31_609
*1343 FILLER_31_616
*1344 FILLER_31_623